data/pglib_opf_case10480_goc_storage.m
%%%%%%%%%%%%%%%%%%%%%%%%%%%%%%%%%%%%%%%%%%%%%%%%%%%%%%%%%%%%%%%%%%%%%%%%%%%
%%%%                                                                  %%%%%
%%%%    IEEE PES Power Grid Library - Optimal Power Flow - v23.07     %%%%%
%%%%          (https://github.com/power-grid-lib/pglib-opf)           %%%%%
%%%%               Benchmark Group - Typical Operations               %%%%%
%%%%                         23 - July - 2023                         %%%%%
%%%%                                                                  %%%%%
%%%%%%%%%%%%%%%%%%%%%%%%%%%%%%%%%%%%%%%%%%%%%%%%%%%%%%%%%%%%%%%%%%%%%%%%%%%
%
%   This is a synthetic 10,480 bus case, developed for use in ARPA-e's Grid
%   Optimization Competition, Challenge 1.
%
%   https://gocompetition.energy.gov/challenges/22/datasets
%
%   Copyright (c) 2020 University of Wisconsin-Madison
%   https://dev.epigrids.discovery.wisc.edu/
%   Licensed under the Creative Commons Attribution 4.0 International license,
%   http://creativecommons.org/licenses/by/4.0/
%
% Modified to have additional storage capacity and increased gencost
function mpc = pglib_opf_case10480_goc
mpc.version = '2';
mpc.baseMVA = 100.0;

%% bus data
%	bus_i	type	Pd	Qd	Gs	Bs	area	Vm	Va	baseKV	zone	Vmax	Vmin
mpc.bus = [
	50134	 1	 0.0	 0.0	 0.0	 0.0	 1	    1.00000	    0.00000	 345.0	 1	    1.10000	    0.90000;
	50135	 1	 0.0	 0.0	 0.0	 0.0	 1	    1.00000	    0.00000	 345.0	 1	    1.10000	    0.90000;
	50136	 1	 30.0	 6.0	 0.0	 0.0	 1	    1.00000	    0.00000	 345.0	 1	    1.10000	    0.90000;
	50137	 1	 120.0	 30.77	 0.0	 0.0	 1	    1.00000	    0.00000	 345.0	 1	    1.10000	    0.90000;
	50138	 1	 0.0	 0.0	 0.0	 0.0	 1	    1.00000	    0.00000	 345.0	 1	    1.10000	    0.90000;
	50139	 1	 0.0	 0.0	 0.0	 0.0	 1	    1.00000	    0.00000	 345.0	 1	    1.10000	    0.90000;
	50140	 2	 0.0	 0.0	 0.0	 0.0	 1	    1.00000	    0.00000	 138.0	 2138	    1.10000	    0.90000;
	50141	 2	 0.0	 0.0	 0.0	 0.0	 1	    1.00000	    0.00000	 138.0	 2138	    1.10000	    0.90000;
	50142	 1	 0.0	 0.0	 0.0	 0.0	 1	    1.00000	    0.00000	 138.0	 2138	    1.10000	    0.90000;
	50143	 1	 0.0	 0.0	 0.0	 0.0	 1	    1.00000	    0.00000	 138.0	 2138	    1.10000	    0.90000;
	50144	 1	 0.0	 0.0	 0.0	 0.0	 1	    1.00000	    0.00000	 138.0	 2138	    1.10000	    0.90000;
	50145	 2	 0.0	 0.0	 0.0	 -26.9442282942	 1	    1.00000	    0.00000	 138.0	 2138	    1.10000	    0.90000;
	50146	 1	 0.0	 0.0	 0.0	 0.0	 1	    1.00000	    0.00000	 345.0	 1	    1.10000	    0.90000;
	50147	 2	 0.0	 0.0	 0.0	 0.0	 1	    1.00000	    0.00000	 138.0	 2138	    1.10000	    0.90000;
	50148	 1	 0.0	 0.0	 0.0	 0.0	 1	    1.00000	    0.00000	 138.0	 2138	    1.10000	    0.90000;
	50149	 1	 0.0	 0.0	 0.0	 0.0	 1	    1.00000	    0.00000	 138.0	 2138	    1.10000	    0.90000;
	50150	 1	 0.0	 0.0	 0.0	 0.0	 1	    1.00000	    0.00000	 345.0	 1	    1.10000	    0.90000;
	50151	 2	 0.0	 0.0	 0.0	 0.0	 1	    1.00000	    0.00000	 138.0	 2138	    1.10000	    0.90000;
	50152	 2	 0.0	 20.81	 0.0	 0.0	 1	    1.00000	    0.00000	 138.0	 2138	    1.10000	    0.90000;
	50153	 2	 0.0	 0.0	 0.0	 0.0	 1	    1.00000	    0.00000	 69.0	 269	    1.10000	    0.90000;
	50154	 1	 0.0	 0.0	 0.0	 0.0	 1	    1.00000	    0.00000	 138.0	 2138	    1.10000	    0.90000;
	50155	 2	 0.0	 0.0	 0.0	 0.0	 1	    1.00000	    0.00000	 138.0	 2138	    1.10000	    0.90000;
	50156	 2	 0.0	 0.0	 0.0	 100.017332721	 1	    1.00000	    0.00000	 345.0	 2	    1.10000	    0.90000;
	50157	 2	 0.0	 0.0	 0.0	 0.0	 1	    1.00000	    0.00000	 138.0	 2138	    1.10000	    0.90000;
	50158	 1	 0.0	 0.0	 0.0	 0.0	 1	    1.00000	    0.00000	 345.0	 1	    1.10000	    0.90000;
	50159	 2	 0.0	 0.0	 0.0	 0.0	 1	    1.00000	    0.00000	 138.0	 2138	    1.10000	    0.90000;
	50160	 2	 0.0	 0.0	 0.0	 0.0	 1	    1.00000	    0.00000	 345.0	 2	    1.10000	    0.90000;
	50161	 1	 0.0	 0.0	 0.0	 0.0	 1	    1.00000	    0.00000	 138.0	 138	    1.10000	    0.90000;
	50162	 1	 0.0	 0.0	 0.0	 0.0	 1	    1.00000	    0.00000	 69.0	 269	    1.10000	    0.90000;
	50163	 2	 0.0	 0.0	 0.0	 0.0	 1	    1.00000	    0.00000	 69.0	 269	    1.10000	    0.90000;
	50164	 2	 0.0	 0.0	 0.0	 0.0	 1	    1.00000	    0.00000	 69.0	 269	    1.10000	    0.90000;
	50165	 2	 0.0	 0.0	 0.0	 0.0	 1	    1.00000	    0.00000	 138.0	 2138	    1.10000	    0.90000;
	50166	 2	 0.0	 0.0	 0.0	 0.0	 1	    1.00000	    0.00000	 138.0	 2138	    1.10000	    0.90000;
	50167	 1	 0.0	 0.0	 0.0	 0.0	 1	    1.00000	    0.00000	 345.0	 1	    1.10000	    0.90000;
	50168	 2	 0.0	 0.0	 0.0	 0.0	 1	    1.00000	    0.00000	 138.0	 2138	    1.10000	    0.90000;
	50169	 2	 0.0	 0.0	 0.0	 0.0	 1	    1.00000	    0.00000	 69.0	 269	    1.10000	    0.90000;
	50170	 1	 0.0	 0.0	 0.0	 0.0	 1	    1.00000	    0.00000	 138.0	 2138	    1.10000	    0.90000;
	50171	 2	 0.0	 -13.28	 0.0	 0.0	 1	    1.00000	    0.00000	 69.0	 269	    1.10000	    0.90000;
	50172	 2	 0.0	 0.0	 0.0	 0.0	 1	    1.00000	    0.00000	 69.0	 269	    1.10000	    0.90000;
	50173	 1	 0.0	 0.0	 0.0	 0.0	 1	    1.00000	    0.00000	 69.0	 269	    1.10000	    0.90000;
	50175	 1	 0.0	 0.0	 0.0	 0.0	 1	    1.00000	    0.00000	 138.0	 2138	    1.10000	    0.90000;
	50176	 1	 0.0	 0.0	 0.0	 0.0	 1	    1.00000	    0.00000	 345.0	 1	    1.10000	    0.90000;
	50178	 1	 0.0	 0.0	 0.0	 0.0	 1	    1.00000	    0.00000	 138.0	 138	    1.10000	    0.90000;
	50179	 1	 0.0	 0.0	 0.0	 0.0	 1	    1.00000	    0.00000	 138.0	 138	    1.10000	    0.90000;
	50181	 1	 0.0	 0.0	 0.0	 0.0	 1	    1.00000	    0.00000	 345.0	 1	    1.10000	    0.90000;
	50182	 1	 0.0	 0.0	 0.0	 -78.8646398791	 1	    1.00000	    0.00000	 345.0	 1	    1.10000	    0.90000;
	50183	 1	 0.0	 0.0	 0.0	 0.0	 1	    1.00000	    0.00000	 345.0	 1	    1.10000	    0.90000;
	50185	 1	 0.0	 0.0	 0.0	 0.0	 1	    1.00000	    0.00000	 138.0	 2138	    1.10000	    0.90000;
	50186	 2	 0.0	 21.63	 0.0	 0.0	 1	    1.00000	    0.00000	 345.0	 2	    1.10000	    0.90000;
	50187	 2	 0.0	 0.0	 0.0	 -202.46579278	 1	    1.00000	    0.00000	 345.0	 2	    1.10000	    0.90000;
	50188	 1	 0.0	 0.0	 0.0	 0.0	 1	    1.00000	    0.00000	 138.0	 138	    1.10000	    0.90000;
	50189	 2	 0.0	 0.0	 0.0	 0.0	 1	    1.00000	    0.00000	 138.0	 2138	    1.10000	    0.90000;
	50190	 1	 0.0	 0.0	 0.0	 0.0	 1	    1.00000	    0.00000	 138.0	 2138	    1.10000	    0.90000;
	50191	 1	 0.0	 0.0	 0.0	 0.0	 1	    1.00000	    0.00000	 138.0	 2138	    1.10000	    0.90000;
	50192	 2	 0.0	 0.0	 0.0	 0.0	 1	    1.00000	    0.00000	 345.0	 2	    1.10000	    0.90000;
	50193	 2	 0.0	 0.0	 0.0	 0.0	 1	    1.00000	    0.00000	 345.0	 2	    1.10000	    0.90000;
	50194	 2	 0.0	 0.0	 0.0	 0.0	 1	    1.00000	    0.00000	 138.0	 2138	    1.10000	    0.90000;
	50195	 1	 0.0	 0.0	 0.0	 0.0	 1	    1.00000	    0.00000	 69.0	 269	    1.10000	    0.90000;
	50196	 1	 0.0	 0.0	 0.0	 0.0	 1	    1.00000	    0.00000	 138.0	 2138	    1.10000	    0.90000;
	50197	 2	 0.0	 0.0	 0.0	 0.0	 1	    1.00000	    0.00000	 138.0	 2138	    1.10000	    0.90000;
	50200	 2	 0.0	 0.0	 0.0	 0.0	 1	    1.00000	    0.00000	 69.0	 269	    1.10000	    0.90000;
	50201	 1	 200.0	 300.0	 0.0	 97.9996893142	 1	    1.00000	    0.00000	 345.0	 1	    1.10000	    0.90000;
	50202	 1	 0.0	 0.0	 0.0	 0.0	 1	    1.00000	    0.00000	 138.0	 2138	    1.10000	    0.90000;
	50203	 1	 0.0	 0.0	 0.0	 0.0	 1	    1.00000	    0.00000	 345.0	 2	    1.10000	    0.90000;
	50205	 1	 0.0	 0.0	 0.0	 0.0	 1	    1.00000	    0.00000	 138.0	 2138	    1.10000	    0.90000;
	50206	 1	 0.0	 0.0	 0.0	 0.0	 1	    1.00000	    0.00000	 345.0	 1	    1.10000	    0.90000;
	50207	 2	 0.0	 0.0	 0.0	 0.0	 1	    1.00000	    0.00000	 345.0	 2	    1.10000	    0.90000;
	50208	 2	 0.0	 0.0	 0.0	 0.0	 1	    1.00000	    0.00000	 345.0	 2	    1.10000	    0.90000;
	50209	 2	 0.0	 0.0	 0.0	 0.0	 1	    1.00000	    0.00000	 345.0	 2	    1.10000	    0.90000;
	50210	 1	 0.0	 0.0	 0.0	 0.0	 1	    1.00000	    0.00000	 345.0	 1	    1.10000	    0.90000;
	50211	 1	 0.0	 0.0	 0.0	 0.0	 1	    1.00000	    0.00000	 138.0	 2138	    1.10000	    0.90000;
	50212	 2	 0.0	 0.0	 0.0	 0.0	 1	    1.00000	    0.00000	 69.0	 269	    1.10000	    0.90000;
	50213	 2	 0.0	 0.0	 0.0	 0.0	 1	    1.00000	    0.00000	 138.0	 2138	    1.10000	    0.90000;
	50214	 1	 0.0	 0.0	 0.0	 0.0	 1	    1.00000	    0.00000	 345.0	 1	    1.10000	    0.90000;
	50215	 2	 0.0	 0.0	 0.0	 0.0	 1	    1.00000	    0.00000	 138.0	 2138	    1.10000	    0.90000;
	50216	 2	 0.0	 0.0	 0.0	 0.0	 1	    1.00000	    0.00000	 138.0	 2138	    1.10000	    0.90000;
	50217	 1	 0.0	 0.0	 0.0	 0.0	 1	    1.00000	    0.00000	 69.0	 269	    1.10000	    0.90000;
	50218	 1	 0.0	 20.31	 0.0	 0.0	 1	    1.00000	    0.00000	 138.0	 138	    1.10000	    0.90000;
	50219	 2	 0.0	 0.0	 0.0	 0.0	 1	    1.00000	    0.00000	 138.0	 2138	    1.10000	    0.90000;
	50220	 2	 0.0	 0.0	 0.0	 0.0	 1	    1.00000	    0.00000	 138.0	 2138	    1.10000	    0.90000;
	50221	 2	 0.0	 0.0	 0.0	 0.0	 1	    1.00000	    0.00000	 138.0	 2138	    1.10000	    0.90000;
	50222	 2	 100.0	 75.0	 0.0	 0.0	 1	    1.00000	    0.00000	 345.0	 2	    1.10000	    0.90000;
	50223	 1	 0.0	 0.0	 0.0	 0.0	 1	    1.00000	    0.00000	 345.0	 1	    1.10000	    0.90000;
	50224	 2	 0.0	 0.0	 0.0	 0.0	 1	    1.00000	    0.00000	 69.0	 269	    1.10000	    0.90000;
	50225	 2	 0.0	 0.0	 0.0	 0.0	 1	    1.00000	    0.00000	 138.0	 2138	    1.10000	    0.90000;
	50226	 2	 0.0	 -20.0	 0.0	 0.0	 1	    1.00000	    0.00000	 69.0	 269	    1.10000	    0.90000;
	50227	 2	 0.0	 0.0	 0.0	 0.0	 1	    1.00000	    0.00000	 69.0	 269	    1.10000	    0.90000;
	50228	 2	 0.0	 0.0	 0.0	 0.0	 1	    1.00000	    0.00000	 69.0	 269	    1.10000	    0.90000;
	50229	 1	 0.0	 0.0	 0.0	 0.0	 1	    1.00000	    0.00000	 345.0	 1	    1.10000	    0.90000;
	50230	 2	 0.0	 0.0	 0.0	 0.0	 1	    1.00000	    0.00000	 345.0	 2	    1.10000	    0.90000;
	50231	 1	 0.0	 0.0	 0.0	 0.0	 1	    1.00000	    0.00000	 138.0	 138	    1.10000	    0.90000;
	50232	 2	 0.0	 0.0	 0.0	 0.0	 1	    1.00000	    0.00000	 138.0	 2138	    1.10000	    0.90000;
	50233	 2	 0.0	 0.0	 0.0	 0.0	 1	    1.00000	    0.00000	 345.0	 2	    1.10000	    0.90000;
	50234	 2	 0.0	 -5.0	 0.0	 0.0	 1	    1.00000	    0.00000	 69.0	 269	    1.10000	    0.90000;
	50235	 1	 0.0	 0.0	 0.0	 0.0	 1	    1.00000	    0.00000	 138.0	 2138	    1.10000	    0.90000;
	50236	 1	 0.0	 0.0	 0.0	 0.0	 1	    1.00000	    0.00000	 345.0	 1	    1.10000	    0.90000;
	50237	 1	 0.0	 0.0	 0.0	 0.0	 1	    1.00000	    0.00000	 345.0	 1	    1.10000	    0.90000;
	50238	 2	 0.0	 0.0	 0.0	 0.0	 1	    1.00000	    0.00000	 345.0	 2	    1.10000	    0.90000;
	50239	 2	 0.0	 0.0	 0.0	 0.0	 1	    1.00000	    0.00000	 345.0	 2	    1.10000	    0.90000;
	50240	 1	 0.0	 0.0	 0.0	 0.0	 1	    1.00000	    0.00000	 345.0	 1	    1.10000	    0.90000;
	50241	 2	 0.0	 0.0	 0.0	 0.0	 1	    1.00000	    0.00000	 345.0	 2	    1.10000	    0.90000;
	50242	 1	 0.0	 0.0	 0.0	 0.0	 1	    1.00000	    0.00000	 230.0	 1	    1.10000	    0.90000;
	50243	 2	 0.0	 0.0	 0.0	 0.0	 1	    1.00000	    0.00000	 345.0	 2	    1.10000	    0.90000;
	50244	 2	 0.0	 0.0	 0.0	 0.0	 1	    1.00000	    0.00000	 345.0	 2	    1.10000	    0.90000;
	50245	 2	 0.0	 0.0	 0.0	 0.0	 1	    1.00000	    0.00000	 138.0	 2138	    1.10000	    0.90000;
	50246	 2	 0.0	 0.0	 0.0	 0.0	 1	    1.00000	    0.00000	 138.0	 2138	    1.10000	    0.90000;
	50247	 1	 0.0	 0.0	 0.0	 0.0	 1	    1.00000	    0.00000	 345.0	 1	    1.10000	    0.90000;
	50248	 2	 0.0	 0.0	 0.0	 0.0	 1	    1.00000	    0.00000	 345.0	 2	    1.10000	    0.90000;
	50249	 1	 0.0	 0.0	 0.0	 0.0	 1	    1.00000	    0.00000	 345.0	 1	    1.10000	    0.90000;
	50250	 1	 0.0	 0.0	 0.0	 0.0	 1	    1.00000	    0.00000	 345.0	 1	    1.10000	    0.90000;
	50251	 1	 0.0	 0.0	 0.0	 0.0	 1	    1.00000	    0.00000	 345.0	 1	    1.10000	    0.90000;
	50252	 2	 0.0	 0.0	 0.0	 0.0	 1	    1.00000	    0.00000	 138.0	 2138	    1.10000	    0.90000;
	50253	 2	 0.0	 0.0	 0.0	 0.0	 1	    1.00000	    0.00000	 138.0	 2138	    1.10000	    0.90000;
	50254	 2	 0.0	 0.0	 0.0	 0.0	 1	    1.00000	    0.00000	 138.0	 2138	    1.10000	    0.90000;
	50256	 2	 0.0	 0.0	 0.0	 0.0	 1	    1.00000	    0.00000	 138.0	 2138	    1.10000	    0.90000;
	50257	 2	 0.0	 0.0	 0.0	 0.0	 1	    1.00000	    0.00000	 345.0	 2	    1.10000	    0.90000;
	50258	 2	 0.0	 0.0	 0.0	 0.0	 1	    1.00000	    0.00000	 230.0	 2	    1.10000	    0.90000;
	50259	 2	 0.0	 0.0	 0.0	 0.0	 1	    1.00000	    0.00000	 138.0	 2138	    1.10000	    0.90000;
	50260	 2	 0.0	 0.0	 0.0	 0.0	 1	    1.00000	    0.00000	 138.0	 2138	    1.10000	    0.90000;
	50261	 2	 0.0	 0.0	 0.0	 0.0	 1	    1.00000	    0.00000	 230.0	 2	    1.10000	    0.90000;
	50262	 2	 0.0	 0.0	 0.0	 0.0	 1	    1.00000	    0.00000	 138.0	 2138	    1.10000	    0.90000;
	50263	 1	 0.0	 0.0	 0.0	 0.0	 1	    1.00000	    0.00000	 345.0	 1	    1.10000	    0.90000;
	50264	 2	 0.0	 0.0	 0.0	 0.0	 1	    1.00000	    0.00000	 138.0	 2138	    1.10000	    0.90000;
	50265	 2	 0.0	 0.0	 0.0	 0.0	 1	    1.00000	    0.00000	 138.0	 2138	    1.10000	    0.90000;
	50266	 1	 0.0	 0.0	 0.0	 0.0	 1	    1.00000	    0.00000	 345.0	 1	    1.10000	    0.90000;
	50267	 2	 0.0	 0.0	 0.0	 0.0	 1	    1.00000	    0.00000	 138.0	 2138	    1.10000	    0.90000;
	50268	 1	 0.0	 0.0	 0.0	 0.0	 1	    1.00000	    0.00000	 138.0	 138	    1.10000	    0.90000;
	50269	 1	 0.0	 0.0	 0.0	 0.0	 1	    1.00000	    0.00000	 345.0	 1	    1.10000	    0.90000;
	50270	 1	 0.0	 0.0	 0.0	 0.0	 1	    1.00000	    0.00000	 345.0	 1	    1.10000	    0.90000;
	50271	 1	 100.0	 91.45	 0.0	 0.0	 1	    1.00000	    0.00000	 345.0	 1	    1.10000	    0.90000;
	50272	 2	 0.0	 0.0	 0.0	 0.0	 1	    1.00000	    0.00000	 138.0	 2138	    1.10000	    0.90000;
	50273	 2	 0.0	 0.0	 0.0	 0.0	 1	    1.00000	    0.00000	 138.0	 2138	    1.10000	    0.90000;
	50274	 2	 0.0	 0.0	 0.0	 0.0	 1	    1.00000	    0.00000	 69.0	 269	    1.10000	    0.90000;
	50275	 1	 0.0	 0.0	 0.0	 0.0	 1	    1.00000	    0.00000	 230.0	 1	    1.10000	    0.90000;
	50276	 1	 0.0	 0.0	 0.0	 0.0	 1	    1.00000	    0.00000	 230.0	 1	    1.10000	    0.90000;
	50277	 2	 0.0	 0.0	 0.0	 0.0	 1	    1.00000	    0.00000	 138.0	 2138	    1.10000	    0.90000;
	50278	 2	 0.0	 0.0	 0.0	 0.0	 1	    1.00000	    0.00000	 69.0	 269	    1.10000	    0.90000;
	50279	 2	 0.0	 0.0	 0.0	 0.0	 1	    1.00000	    0.00000	 69.0	 269	    1.10000	    0.90000;
	50280	 2	 0.0	 0.0	 0.0	 0.0	 1	    1.00000	    0.00000	 138.0	 2138	    1.10000	    0.90000;
	50281	 2	 0.0	 0.0	 0.0	 0.0	 1	    1.00000	    0.00000	 138.0	 2138	    1.10000	    0.90000;
	50282	 2	 0.0	 0.0	 0.0	 0.0	 1	    1.00000	    0.00000	 69.0	 269	    1.10000	    0.90000;
	50283	 2	 0.0	 0.0	 0.0	 0.0	 1	    1.00000	    0.00000	 138.0	 2138	    1.10000	    0.90000;
	50284	 1	 0.0	 0.0	 0.0	 0.0	 1	    1.00000	    0.00000	 345.0	 1	    1.10000	    0.90000;
	50285	 1	 0.0	 0.0	 0.0	 0.0	 1	    1.00000	    0.00000	 138.0	 138	    1.10000	    0.90000;
	50286	 1	 0.0	 0.0	 0.0	 0.0	 1	    1.00000	    0.00000	 138.0	 2138	    1.10000	    0.90000;
	50287	 2	 0.0	 0.0	 0.0	 0.0	 1	    1.00000	    0.00000	 345.0	 2	    1.10000	    0.90000;
	50288	 1	 0.0	 0.0	 0.0	 0.0	 1	    1.00000	    0.00000	 345.0	 1	    1.10000	    0.90000;
	50289	 1	 0.0	 0.0	 0.0	 0.0	 1	    1.00000	    0.00000	 138.0	 138	    1.10000	    0.90000;
	50290	 2	 0.0	 0.0	 0.0	 0.0	 1	    1.00000	    0.00000	 138.0	 2138	    1.10000	    0.90000;
	50291	 2	 50.0	 150.0	 0.0	 -252.950670921	 1	    1.00000	    0.00000	 345.0	 2	    1.10000	    0.90000;
	50292	 1	 0.0	 0.0	 0.0	 0.0	 1	    1.00000	    0.00000	 138.0	 2138	    1.10000	    0.90000;
	50293	 2	 0.0	 0.0	 0.0	 0.0	 1	    1.00000	    0.00000	 138.0	 2138	    1.10000	    0.90000;
	50294	 2	 0.0	 0.0	 0.0	 0.0	 1	    1.00000	    0.00000	 345.0	 2	    1.10000	    0.90000;
	50295	 1	 0.0	 0.0	 0.0	 0.0	 1	    1.00000	    0.00000	 345.0	 1	    1.10000	    0.90000;
	50296	 2	 0.0	 0.0	 0.0	 0.0	 1	    1.00000	    0.00000	 138.0	 2138	    1.10000	    0.90000;
	50297	 2	 0.0	 0.0	 0.0	 0.0	 1	    1.00000	    0.00000	 69.0	 269	    1.10000	    0.90000;
	50298	 2	 0.0	 0.0	 0.0	 0.0	 1	    1.00000	    0.00000	 69.0	 269	    1.10000	    0.90000;
	50299	 2	 0.0	 0.0	 0.0	 0.0	 1	    1.00000	    0.00000	 345.0	 2	    1.10000	    0.90000;
	50300	 2	 100.0	 21.63	 0.0	 0.0	 1	    1.00000	    0.00000	 345.0	 2	    1.10000	    0.90000;
	50301	 2	 0.0	 0.0	 0.0	 0.0	 1	    1.00000	    0.00000	 138.0	 2138	    1.10000	    0.90000;
	50302	 2	 0.0	 0.0	 0.0	 0.0	 1	    1.00000	    0.00000	 69.0	 269	    1.10000	    0.90000;
	50303	 2	 0.0	 0.0	 0.0	 0.0	 1	    1.00000	    0.00000	 69.0	 269	    1.10000	    0.90000;
	50304	 2	 0.0	 0.0	 0.0	 0.0	 1	    1.00000	    0.00000	 345.0	 2	    1.10000	    0.90000;
	50305	 2	 0.0	 0.0	 0.0	 0.0	 1	    1.00000	    0.00000	 138.0	 2138	    1.10000	    0.90000;
	50306	 2	 0.0	 0.0	 0.0	 0.0	 1	    1.00000	    0.00000	 69.0	 269	    1.10000	    0.90000;
	50307	 1	 0.0	 0.0	 0.0	 -255.977905721	 1	    1.00000	    0.00000	 345.0	 1	    1.10000	    0.90000;
	50308	 2	 0.0	 0.0	 0.0	 0.0	 1	    1.00000	    0.00000	 69.0	 269	    1.10000	    0.90000;
	50309	 1	 0.0	 0.0	 0.0	 0.0	 1	    1.00000	    0.00000	 69.0	 269	    1.10000	    0.90000;
	50310	 2	 0.0	 0.0	 0.0	 0.0	 1	    1.00000	    0.00000	 345.0	 2	    1.10000	    0.90000;
	50311	 2	 0.0	 0.0	 0.0	 0.0	 1	    1.00000	    0.00000	 345.0	 2	    1.10000	    0.90000;
	50312	 2	 0.0	 0.0	 0.0	 0.0	 1	    1.00000	    0.00000	 345.0	 2	    1.10000	    0.90000;
	50313	 2	 0.0	 0.0	 0.0	 0.0	 1	    1.00000	    0.00000	 345.0	 2	    1.10000	    0.90000;
	50314	 2	 0.0	 0.0	 0.0	 0.0	 1	    1.00000	    0.00000	 345.0	 2	    1.10000	    0.90000;
	50315	 1	 0.0	 0.0	 0.0	 0.0	 1	    1.00000	    0.00000	 345.0	 1	    1.10000	    0.90000;
	50316	 1	 0.0	 0.0	 0.0	 0.0	 1	    1.00000	    0.00000	 345.0	 1	    1.10000	    0.90000;
	50317	 2	 0.0	 0.0	 0.0	 0.0	 1	    1.00000	    0.00000	 345.0	 2	    1.10000	    0.90000;
	50318	 1	 0.0	 0.0	 0.0	 0.0	 1	    1.00000	    0.00000	 345.0	 1	    1.10000	    0.90000;
	50319	 2	 0.0	 0.0	 0.0	 0.0	 1	    1.00000	    0.00000	 138.0	 2138	    1.10000	    0.90000;
	50320	 3	 0.0	 0.0	 0.0	 0.0	 1	    1.00000	    0.00000	 345.0	 2	    1.10000	    0.90000;
	50321	 1	 0.0	 0.0	 0.0	 0.0	 1	    1.00000	    0.00000	 230.0	 1	    1.10000	    0.90000;
	50322	 1	 0.0	 0.0	 0.0	 0.0	 1	    1.00000	    0.00000	 345.0	 1	    1.10000	    0.90000;
	50323	 1	 0.0	 0.0	 0.0	 0.0	 1	    1.00000	    0.00000	 345.0	 1	    1.10000	    0.90000;
	50324	 1	 0.0	 0.0	 0.0	 0.0	 1	    1.00000	    0.00000	 345.0	 1	    1.10000	    0.90000;
	50325	 1	 0.0	 0.0	 0.0	 0.0	 1	    1.00000	    0.00000	 345.0	 1	    1.10000	    0.90000;
	50326	 2	 150.0	 33.0	 0.0	 0.0	 1	    1.00000	    0.00000	 345.0	 1	    1.10000	    0.90000;
	50327	 1	 0.0	 0.0	 0.0	 0.0	 1	    1.00000	    0.00000	 345.0	 1	    1.10000	    0.90000;
	50328	 1	 0.0	 0.0	 0.0	 0.0	 1	    1.00000	    0.00000	 345.0	 1	    1.10000	    0.90000;
	50329	 2	 0.0	 0.0	 0.0	 0.0	 1	    1.00000	    0.00000	 345.0	 2	    1.10000	    0.90000;
	50330	 1	 0.0	 0.0	 0.0	 0.0	 1	    1.00000	    0.00000	 345.0	 1	    1.10000	    0.90000;
	50331	 1	 0.0	 0.0	 0.0	 0.0	 1	    1.00000	    0.00000	 345.0	 1	    1.10000	    0.90000;
	50332	 2	 0.0	 0.0	 0.0	 0.0	 1	    1.00000	    0.00000	 138.0	 2138	    1.10000	    0.90000;
	50333	 1	 0.0	 0.0	 0.0	 0.0	 1	    1.00000	    0.00000	 345.0	 1	    1.10000	    0.90000;
	50334	 2	 0.0	 0.0	 0.0	 -180.249216316	 1	    1.00000	    0.00000	 345.0	 2	    1.10000	    0.90000;
	50335	 2	 0.0	 0.0	 0.0	 0.0	 1	    1.00000	    0.00000	 138.0	 2138	    1.10000	    0.90000;
	50336	 1	 0.0	 0.0	 0.0	 0.0	 1	    1.00000	    0.00000	 345.0	 1	    1.10000	    0.90000;
	50337	 1	 120.0	 40.0	 0.0	 0.0	 1	    1.00000	    0.00000	 345.0	 1	    1.10000	    0.90000;
	50338	 1	 0.0	 0.0	 0.0	 0.0	 1	    1.00000	    0.00000	 345.0	 1	    1.10000	    0.90000;
	50339	 2	 0.0	 0.0	 0.0	 0.0	 1	    1.00000	    0.00000	 345.0	 2	    1.10000	    0.90000;
	50340	 1	 0.0	 0.0	 0.0	 0.0	 1	    1.00000	    0.00000	 345.0	 1	    1.10000	    0.90000;
	50341	 2	 0.0	 0.0	 0.0	 0.0	 1	    1.00000	    0.00000	 138.0	 2138	    1.10000	    0.90000;
...
];

%% generator data
%	bus	Pg	Qg	Qmax	Qmin	Vg	mBase	status	Pmax	Pmin
mpc.gen = [
	50140	 17.0	 0.0	 66.1	 -66.1	 1.0	 100.0	 1	 34.0	 0.0;
	50141	 89.5	 21.3	 92.3	 -49.7	 1.0	 100.0	 1	 149.0	 30.0;
	50145	 49.5	 6.8165	 57.333	 -43.7	 1.0	 100.0	 1	 99.0	 0.0;
	50147	 48.0	 0.0	 42.3	 -42.3	 1.0	 100.0	 1	 96.0	 0.0;
	50147	 22.0	 0.0	 46.3	 -46.3	 1.0	 100.0	 1	 44.0	 0.0;
	50151	 47.5	 6.45	 41.2	 -28.3	 1.0	 100.0	 1	 85.0	 10.0;
	50152	 20.52	 28.592	 66.884	 -9.7	 1.0	 100.0	 1	 29.0	 12.04;
	50152	 20.52	 28.592	 66.884	 -9.7	 1.0	 100.0	 1	 29.0	 12.04;
	50153	 52.3	 11.7	 50.6	 -27.2	 1.0	 100.0	 1	 81.6	 23.0;
	50155	 57.75	 8.95	 43.6	 -25.7	 1.0	 100.0	 1	 77.0	 38.5;
	50156	 6.3	 1.75	 6.3	 -2.8	 1.0	 100.0	 1	 8.4	 4.2;
	50156	 6.3	 1.75	 6.3	 -2.8	 1.0	 100.0	 1	 8.4	 4.2;
	50156	 6.3	 1.75	 6.3	 -2.8	 1.0	 100.0	 1	 8.4	 4.2;
	50157	 46.6	 5.4	 34.5	 -23.7	 1.0	 100.0	 1	 71.2	 22.0;
	50157	 46.6	 5.4	 34.5	 -23.7	 1.0	 100.0	 1	 71.2	 22.0;
	50157	 47.2	 5.5	 35.1	 -24.1	 1.0	 100.0	 1	 72.4	 22.0;
	50159	 44.33	 8.35	 39.7	 -23.0	 1.0	 100.0	 1	 69.0	 19.66;
	50160	 33.5	 7.75	 33.5	 -18.0	 1.0	 100.0	 1	 54.0	 13.0;
	50160	 33.5	 7.75	 33.5	 -18.0	 1.0	 100.0	 1	 54.0	 13.0;
	50160	 33.5	 7.75	 33.5	 -18.0	 1.0	 100.0	 1	 54.0	 13.0;
	50160	 33.5	 7.75	 33.5	 -18.0	 1.0	 100.0	 1	 54.0	 13.0;
	50160	 140.7	 24.55	 106.2	 -57.1	 1.0	 100.0	 1	 171.4	 110.0;
	50160	 140.7	 24.55	 106.2	 -57.1	 1.0	 100.0	 1	 171.4	 110.0;
	50160	 140.7	 24.55	 106.2	 -57.1	 1.0	 100.0	 1	 171.4	 110.0;
	50163	 25.0	 0.0	 19.8	 -19.8	 1.0	 100.0	 1	 50.0	 0.0;
	50164	 25.0	 0.0	 19.8	 -19.8	 1.0	 100.0	 1	 50.0	 0.0;
	50165	 269.0	 30.45	 195.2	 -134.3	 1.0	 100.0	 1	 403.0	 135.0;
	50166	 24.0	 0.0	 19.0	 -19.0	 1.0	 100.0	 1	 48.0	 0.0;
	50166	 11.5	 0.0	 44.3	 -44.3	 1.0	 100.0	 1	 23.0	 0.0;
	50168	 28.35	 9.1	 32.8	 -14.6	 1.0	 100.0	 1	 43.7	 13.0;
	50169	 24.5	 4.705	 22.71	 -13.3	 1.0	 100.0	 1	 40.0	 9.0;
	50171	 30.45	 3.5	 37.0	 -30.0	 1.0	 100.0	 1	 38.9	 22.0;
	50172	 15.75	 33.9105	 76.621	 -8.8	 1.0	 100.0	 1	 26.5	 5.0;
	50186	 90.0	 13.6	 87.2	 -60.0	 1.0	 100.0	 1	 180.0	 0.0;
	50187	 33.5	 0.0	 70.1	 -70.1	 1.0	 100.0	 1	 67.0	 0.0;
	50189	 17.0	 292.25	 650.0	 -65.5	 1.0	 100.0	 1	 34.0	 0.0;
	50192	 16.0	 -10.5845	 37.8	 -58.969	 1.0	 100.0	 1	 32.0	 0.0;
	50192	 16.0	 -10.5845	 37.8	 -58.969	 1.0	 100.0	 1	 32.0	 0.0;
	50192	 16.0	 -10.5845	 42.1	 -63.269	 1.0	 100.0	 1	 32.0	 0.0;
	50192	 16.0	 -10.5845	 42.1	 -63.269	 1.0	 100.0	 1	 32.0	 0.0;
	50192	 16.0	 -10.5845	 42.1	 -63.269	 1.0	 100.0	 1	 32.0	 0.0;
	50193	 21.5	 0.0	 45.2	 -45.2	 1.0	 100.0	 1	 43.0	 0.0;
	50194	 31.2	 0.927	 26.554	 -24.7	 1.0	 100.0	 1	 62.4	 0.0;
	50197	 32.0	 10.54	 40.68	 -19.6	 1.0	 100.0	 1	 64.0	 0.0;
	50200	 20.25	 3.432	 22.864	 -16.0	 1.0	 100.0	 1	 40.5	 0.0;
	50207	 507.65	 51.45	 330.0	 -227.1	 1.0	 100.0	 1	 681.3	 334.0;
	50207	 507.65	 51.45	 330.0	 -227.1	 1.0	 100.0	 1	 681.3	 334.0;
	50208	 529.0	 55.7	 357.4	 -246.0	 1.0	 100.0	 1	 738.0	 320.0;
	50209	 488.0	 71.9	 311.1	 -167.3	 1.0	 100.0	 1	 502.0	 474.0;
	50212	 40.5	 0.0	 32.0	 -32.0	 1.0	 100.0	 1	 81.0	 0.0;
	50213	 49.45	 13.45	 58.2	 -31.3	 1.0	 100.0	 1	 93.9	 5.0;
	50213	 40.8	 11.0	 47.5	 -25.5	 1.0	 100.0	 1	 76.6	 5.0;
	50213	 40.8	 11.0	 47.5	 -25.5	 1.0	 100.0	 1	 76.6	 5.0;
	50215	 138.8	 118.7505	 310.001	 -72.5	 1.0	 100.0	 1	 217.6	 60.0;
	50216	 41.2	 5.5	 35.1	 -24.1	 1.0	 100.0	 1	 72.4	 10.0;
	50216	 72.7	 19.9	 71.6	 -31.8	 1.0	 100.0	 1	 95.4	 50.0;
	50216	 57.7	 19.9	 71.6	 -31.8	 1.0	 100.0	 1	 95.4	 20.0;
	50219	 34.2	 18.117	 57.334	 -21.1	 1.0	 100.0	 1	 63.4	 5.0;
	50219	 34.2	 18.117	 57.334	 -21.1	 1.0	 100.0	 1	 63.4	 5.0;
	50219	 38.2	 16.817	 51.734	 -18.1	 1.0	 100.0	 1	 54.4	 22.0;
	50219	 14.95	 12.567	 33.434	 -8.3	 1.0	 100.0	 1	 24.9	 5.0;
	50220	 19.1	 4.3115	 18.023	 -9.4	 1.0	 100.0	 1	 28.2	 10.0;
	50220	 40.25	 10.8115	 41.823	 -20.2	 1.0	 100.0	 1	 60.5	 20.0;
	50220	 40.25	 10.8115	 41.823	 -20.2	 1.0	 100.0	 1	 60.5	 20.0;
	50220	 40.25	 10.8115	 41.823	 -20.2	 1.0	 100.0	 1	 60.5	 20.0;
	50221	 30.0	 5.531	 34.762	 -23.7	 1.0	 100.0	 1	 60.0	 0.0;
	50222	 29.7	 -27.4195	 23.5	 -78.339	 1.0	 100.0	 1	 59.4	 0.0;
	50224	 28.85	 4.3	 27.5	 -18.9	 1.0	 100.0	 1	 56.7	 1.0;
	50225	 38.7	 19.2855	 57.071	 -18.5	 1.0	 100.0	 1	 55.4	 22.0;
	50225	 38.7	 19.2855	 57.071	 -18.5	 1.0	 100.0	 1	 55.4	 22.0;
	50225	 44.45	 23.5855	 66.771	 -19.6	 1.0	 100.0	 1	 58.9	 30.0;
	50225	 41.45	 23.5855	 66.771	 -19.6	 1.0	 100.0	 1	 58.9	 24.0;
	50225	 79.8	 30.2355	 95.671	 -35.2	 1.0	 100.0	 1	 105.6	 54.0;
	50226	 27.5	 16.909	 50.218	 -16.4	 1.0	 100.0	 1	 50.0	 5.0;
	50227	 7.6	 1.6065	 8.213	 -5.0	 1.0	 100.0	 1	 15.2	 0.0;
	50227	 7.6	 1.6065	 8.213	 -5.0	 1.0	 100.0	 1	 15.2	 0.0;
	50228	 6.55	 9.7265	 23.803	 -4.35	 1.0	 100.0	 1	 13.1	 0.0;
	50228	 6.55	 9.7265	 23.803	 -4.35	 1.0	 100.0	 1	 13.1	 0.0;
	50230	 12.75	 34.8205	 77.141	 -7.5	 1.0	 100.0	 1	 22.5	 3.0;
	50232	 13.5	 68.1045	 143.509	 -7.3	 1.0	 100.0	 1	 22.0	 5.0;
	50233	 14.5	 32.547	 72.394	 -7.3	 1.0	 100.0	 1	 22.0	 7.0;
	50234	 1.3625	 0.569	 2.05	 -0.912	 1.0	 100.0	 1	 2.725	 0.0;
	50234	 1.3625	 0.569	 2.05	 -0.912	 1.0	 100.0	 1	 2.725	 0.0;
	50234	 1.3625	 0.569	 2.05	 -0.912	 1.0	 100.0	 1	 2.725	 0.0;
	50238	 108.125	 20.15	 98.0	 -57.7	 1.0	 100.0	 1	 173.0	 43.25;
	50238	 386.0	 43.15	 277.0	 -190.7	 1.0	 100.0	 1	 572.0	 200.0;
	50239	 384.5	 42.95	 275.6	 -189.7	 1.0	 100.0	 1	 569.0	 200.0;
	50241	 155.0	 24.35	 105.4	 -56.7	 1.0	 100.0	 1	 170.0	 140.0;
	50241	 136.75	 25.55	 110.6	 -59.5	 1.0	 100.0	 1	 178.5	 95.0;
	50241	 136.75	 25.55	 110.6	 -59.5	 1.0	 100.0	 1	 178.5	 95.0;
	50241	 339.0	 35.7	 229.1	 -157.7	 1.0	 100.0	 1	 473.0	 205.0;
	50241	 316.5	 35.7	 229.1	 -157.7	 1.0	 100.0	 1	 473.0	 160.0;
	50243	 154.75	 22.8	 98.8	 -53.2	 1.0	 100.0	 1	 159.5	 150.0;
	50243	 154.75	 22.8	 98.8	 -53.2	 1.0	 100.0	 1	 159.5	 150.0;
	50243	 144.2	 28.5	 123.3	 -66.3	 1.0	 100.0	 1	 198.9	 89.5;
	50243	 144.2	 28.5	 123.3	 -66.3	 1.0	 100.0	 1	 198.9	 89.5;
	50244	 126.95	 13.9	 89.1	 -61.3	 1.0	 100.0	 1	 183.9	 70.0;
	50244	 126.95	 13.9	 89.1	 -61.3	 1.0	 100.0	 1	 183.9	 70.0;
	50244	 126.95	 13.9	 89.1	 -61.3	 1.0	 100.0	 1	 183.9	 70.0;
	50244	 126.95	 13.9	 89.1	 -61.3	 1.0	 100.0	 1	 183.9	 70.0;
	50244	 193.6	 23.95	 153.6	 -105.7	 1.0	 100.0	 1	 317.2	 70.0;
	50244	 176.1	 23.95	 153.6	 -105.7	 1.0	 100.0	 1	 317.2	 35.0;
	50245	 152.15	 25.65	 111.1	 -59.8	 1.0	 100.0	 1	 179.3	 125.0;
	50245	 152.15	 25.65	 111.1	 -59.8	 1.0	 100.0	 1	 179.3	 125.0;
	50245	 152.15	 25.65	 111.1	 -59.8	 1.0	 100.0	 1	 179.3	 125.0;
	50245	 97.0	 17.45	 75.6	 -40.7	 1.0	 100.0	 1	 122.0	 72.0;
	50245	 97.0	 17.45	 75.6	 -40.7	 1.0	 100.0	 1	 122.0	 72.0;
	50245	 97.0	 17.45	 75.6	 -40.7	 1.0	 100.0	 1	 122.0	 72.0;
	50246	 135.1	 25.25	 109.4	 -58.9	 1.0	 100.0	 1	 176.6	 93.6;
	50246	 135.1	 25.25	 109.4	 -58.9	 1.0	 100.0	 1	 176.6	 93.6;
	50246	 143.62	 28.4	 122.8	 -66.0	 1.0	 100.0	 1	 198.1	 89.14;
	50248	 143.0	 25.2	 109.1	 -58.7	 1.0	 100.0	 1	 176.0	 110.0;
	50248	 143.0	 25.2	 109.1	 -58.7	 1.0	 100.0	 1	 176.0	 110.0;
	50248	 143.0	 25.2	 109.1	 -58.7	 1.0	 100.0	 1	 176.0	 110.0;
	50248	 143.0	 25.2	 109.1	 -58.7	 1.0	 100.0	 1	 176.0	 110.0;
	50248	 157.5	 36.5	 158.0	 -85.0	 1.0	 100.0	 1	 255.0	 60.0;
	50248	 157.5	 36.5	 158.0	 -85.0	 1.0	 100.0	 1	 255.0	 60.0;
	50252	 27.0	 0.0	 54.2	 -54.2	 1.0	 100.0	 1	 54.0	 0.0;
	50253	 36.0	 0.0	 52.9	 -52.9	 1.0	 100.0	 1	 72.0	 0.0;
	50254	 27.5	 0.0	 44.6	 -44.6	 1.0	 100.0	 1	 55.0	 0.0;
	50256	 49.5	 0.0	 43.7	 -43.7	 1.0	 100.0	 1	 99.0	 0.0;
	50257	 49.6	 -4.3005	 43.7	 -52.301	 1.0	 100.0	 1	 99.2	 0.0;
	50257	 49.45	 -4.3005	 43.6	 -52.201	 1.0	 100.0	 1	 98.9	 0.0;
	50258	 94.5	 86.0345	 228.769	 -56.7	 1.0	 100.0	 1	 170.0	 19.0;
	50258	 94.5	 86.0345	 228.769	 -56.7	 1.0	 100.0	 1	 170.0	 19.0;
	50259	 22.25	 14.127	 69.954	 -41.7	 1.0	 100.0	 1	 44.5	 0.0;
	50260	 48.5	 0.0	 27.6	 -27.6	 1.0	 100.0	 1	 84.0	 13.0;
	50260	 68.75	 12.4	 53.6	 -28.8	 1.0	 100.0	 1	 86.5	 51.0;
	50260	 68.75	 12.4	 53.6	 -28.8	 1.0	 100.0	 1	 86.5	 51.0;
	50260	 175.0	 23.8	 152.6	 -105.0	 1.0	 100.0	 1	 315.0	 35.0;
	50261	 64.25	 12.4	 53.6	 -28.8	 1.0	 100.0	 1	 86.5	 42.0;
	50261	 64.25	 12.4	 53.6	 -28.8	 1.0	 100.0	 1	 86.5	 42.0;
	50262	 57.5	 9.047	 46.394	 -28.3	 1.0	 100.0	 1	 85.0	 30.0;
	50262	 57.5	 9.047	 46.394	 -28.3	 1.0	 100.0	 1	 85.0	 30.0;
	50262	 77.0	 11.647	 63.294	 -40.0	 1.0	 100.0	 1	 120.0	 34.0;
	50264	 30.0	 6.45	 27.9	 -15.0	 1.0	 100.0	 1	 45.0	 15.0;
	50264	 30.0	 6.45	 27.9	 -15.0	 1.0	 100.0	 1	 45.0	 15.0;
	50264	 30.0	 6.45	 27.9	 -15.0	 1.0	 100.0	 1	 45.0	 15.0;
	50264	 32.5	 7.15	 31.0	 -16.7	 1.0	 100.0	 1	 50.0	 15.0;
	50265	 64.75	 12.1	 52.4	 -28.2	 1.0	 100.0	 1	 84.5	 45.0;
	50265	 64.75	 12.1	 52.4	 -28.2	 1.0	 100.0	 1	 84.5	 45.0;
	50265	 64.75	 12.1	 52.4	 -28.2	 1.0	 100.0	 1	 84.5	 45.0;
	50265	 64.75	 12.1	 52.4	 -28.2	 1.0	 100.0	 1	 84.5	 45.0;
	50267	 47.0	 -0.9365	 14.727	 -16.6	 1.0	 100.0	 1	 49.9	 44.1;
	50267	 69.9	 0.7135	 25.627	 -24.2	 1.0	 100.0	 1	 72.5	 67.3;
	50272	 77.5	 17.9	 77.5	 -41.7	 1.0	 100.0	 1	 125.0	 30.0;
	50272	 82.5	 19.35	 83.7	 -45.0	 1.0	 100.0	 1	 135.0	 30.0;
	50272	 32.5	 6.45	 27.9	 -15.0	 1.0	 100.0	 1	 45.0	 20.0;
	50273	 30.0	 6.813	 28.626	 -15.0	 1.0	 100.0	 1	 45.0	 15.0;
	50273	 30.0	 6.813	 28.626	 -15.0	 1.0	 100.0	 1	 45.0	 15.0;
	50274	 7.6	 6.733	 17.141	 -3.675	 1.0	 100.0	 1	 11.2	 4.0;
	50274	 7.6	 6.733	 17.141	 -3.675	 1.0	 100.0	 1	 11.2	 4.0;
	50277	 20.25	 2.605	 21.21	 -16.0	 1.0	 100.0	 1	 40.5	 0.0;
	50277	 53.25	 2.605	 52.21	 -47.0	 1.0	 100.0	 1	 106.5	 0.0;
	50278	 13.75	 6.123	 18.646	 -6.4	 1.0	 100.0	 1	 19.5	 8.0;
	50278	 13.75	 6.123	 18.646	 -6.4	 1.0	 100.0	 1	 19.5	 8.0;
	50279	 19.5	 10.6925	 33.685	 -12.3	 1.0	 100.0	 1	 37.0	 2.0;
	50280	 30.0	 20.2515	 52.003	 -11.5	 1.0	 100.0	 1	 35.0	 25.0;
	50280	 30.0	 20.2515	 52.003	 -11.5	 1.0	 100.0	 1	 35.0	 25.0;
	50281	 25.05	 0.0	 12.7	 -12.7	 1.0	 100.0	 1	 32.1	 18.0;
	50281	 25.05	 0.0	 12.7	 -12.7	 1.0	 100.0	 1	 32.1	 18.0;
	50281	 25.05	 2.4	 15.5	 -10.7	 1.0	 100.0	 1	 32.1	 18.0;
	50282	 20.0	 0.0	 9.9	 -9.9	 1.0	 100.0	 1	 30.0	 10.0;
	50282	 20.0	 0.0	 9.9	 -9.9	 1.0	 100.0	 1	 30.0	 10.0;
	50283	 18.75	 5.618	 20.236	 -9.0	 1.0	 100.0	 1	 27.5	 10.0;
	50283	 18.75	 5.618	 20.236	 -9.0	 1.0	 100.0	 1	 27.5	 10.0;
	50283	 18.75	 5.618	 20.236	 -9.0	 1.0	 100.0	 1	 27.5	 10.0;
	50283	 18.75	 5.618	 20.236	 -9.0	 1.0	 100.0	 1	 27.5	 10.0;
	50287	 14.0	 1.7	 11.1	 -7.7	 1.0	 100.0	 1	 23.0	 5.0;
	50287	 318.5	 42.8	 274.6	 -189.0	 1.0	 100.0	 1	 567.0	 70.0;
	50290	 13.5	 3.824	 14.248	 -6.6	 1.0	 100.0	 1	 20.0	 7.0;
	50290	 13.5	 3.824	 14.248	 -6.6	 1.0	 100.0	 1	 20.0	 7.0;
	50291	 303.0	 84.45	 320.9	 -152.0	 1.0	 100.0	 1	 456.0	 150.0;
	50293	 82.35	 9.05	 58.0	 -39.9	 1.0	 100.0	 1	 119.7	 45.0;
	50293	 82.35	 9.05	 58.0	 -39.9	 1.0	 100.0	 1	 119.7	 45.0;
	50293	 128.15	 23.85	 103.1	 -55.4	 1.0	 100.0	 1	 166.3	 90.0;
	50294	 56.0	 0.0	 36.8	 -36.8	 1.0	 100.0	 1	 112.0	 0.0;
	50294	 56.0	 0.0	 36.8	 -36.8	 1.0	 100.0	 1	 112.0	 0.0;
	50294	 56.0	 0.0	 36.8	 -36.8	 1.0	 100.0	 1	 112.0	 0.0;
	50294	 56.0	 0.0	 36.8	 -36.8	 1.0	 100.0	 1	 112.0	 0.0;
	50294	 56.0	 0.0	 36.8	 -36.8	 1.0	 100.0	 1	 112.0	 0.0;
	50294	 56.0	 0.0	 36.8	 -36.8	 1.0	 100.0	 1	 112.0	 0.0;
	50294	 56.0	 0.0	 36.8	 -36.8	 1.0	 100.0	 1	 112.0	 0.0;
	50296	 69.8	 7.05	 45.3	 -31.2	 1.0	 100.0	 1	 93.5	 46.1;
	50296	 70.55	 7.15	 46.0	 -31.7	 1.0	 100.0	 1	 95.0	 46.1;
	50297	 38.75	 5.1	 32.7	 -22.5	 1.0	 100.0	 1	 67.5	 10.0;
	50297	 38.75	 5.1	 32.7	 -22.5	 1.0	 100.0	 1	 67.5	 10.0;
	50298	 43.75	 19.4475	 61.395	 -22.5	 1.0	 100.0	 1	 67.5	 20.0;
	50299	 29.25	 0.0	 29.2	 -29.2	 1.0	 100.0	 1	 58.5	 0.0;
	50299	 29.25	 0.0	 29.2	 -29.2	 1.0	 100.0	 1	 58.5	 0.0;
	50299	 29.25	 0.0	 29.2	 -29.2	 1.0	 100.0	 1	 58.5	 0.0;
	50299	 29.25	 0.0	 29.2	 -29.2	 1.0	 100.0	 1	 58.5	 0.0;
	50299	 29.25	 0.0	 29.2	 -29.2	 1.0	 100.0	 1	 58.5	 0.0;
	50299	 33.6	 0.0	 32.1	 -32.1	 1.0	 100.0	 1	 67.2	 0.0;
	50300	 25.5	 24.402	 69.004	 -20.2	 1.0	 100.0	 1	 51.0	 0.0;
	50301	 25.2	 16.7585	 53.417	 -19.9	 1.0	 100.0	 1	 50.4	 0.0;
	50302	 28.95	 35.9125	 86.125	 -14.3	 1.0	 100.0	 1	 42.9	 15.0;
	50303	 20.25	 2.177	 20.354	 -16.0	 1.0	 100.0	 1	 40.5	 0.0;
	50304	 20.0	 5.186	 23.472	 -13.1	 1.0	 100.0	 1	 40.0	 0.0;
	50304	 20.0	 5.186	 23.472	 -13.1	 1.0	 100.0	 1	 40.0	 0.0;
...
];

%% generator cost data
%	2	startup	shutdown	n	c(n-1)	...	c0
mpc.gencost = [
2	0.0	0.0	3	0.2	2.380000	0.000000;
	2	 0.0	 0.0	 3	   0.031720	  25.250000	  -1.897000;
2	0.0	0.0	3	0.2	3.796000	0.000000;
2	0.0	0.0	3	0.2	1.968000	0.000000;
2	0.0	0.0	3	0.2	2.964000	0.000000;
2	0.0	0.0	3	0.2	19.680000	-19.140000;
2	0.0	0.0	3	0.2	54.630000	-4.442000;
2	0.0	0.0	3	0.2	55.370000	-11.110000;
	2	 0.0	 0.0	 3	   0.059790	  27.970000	  -2.403000;
2	0.0	0.0	3	0.2	21.020000	-30.230000;
2	0.0	0.0	3	0.2	0.002273	0.000000;
2	0.0	0.0	3	0.2	0.002273	0.000000;
2	0.0	0.0	3	0.2	0.002273	0.000000;
2	0.0	0.0	3	0.2	20.020000	-19.520000;
2	0.0	0.0	3	0.2	19.040000	-19.520000;
2	0.0	0.0	3	0.2	21.590000	-20.020000;
	2	 0.0	 0.0	 3	   0.069020	  28.660000	  -2.376000;
2	0.0	0.0	3	0.2	19.190000	-60.170000;
2	0.0	0.0	3	0.2	18.740000	-36.100000;
2	0.0	0.0	3	0.2	18.970000	-60.170000;
2	0.0	0.0	3	0.2	17.500000	-36.100000;
2	0.0	0.0	3	0.2	66.010000	-118.600000;
2	0.0	0.0	3	0.2	65.130000	-118.600000;
2	0.0	0.0	3	0.2	65.200000	-118.600000;
2	0.0	0.0	3	0.2	2.027000	0.000000;
2	0.0	0.0	3	0.2	3.465000	0.000000;
	2	 0.0	 0.0	 3	   0.004145	  14.790000	   0.000000;
2	0.0	0.0	3	0.2	3.118000	0.000000;
2	0.0	0.0	3	0.2	1.210000	0.000000;
2	0.0	0.0	3	0.2	18.650000	-26.140000;
2	0.0	0.0	3	0.2	32.230000	-53.800000;
2	0.0	0.0	3	0.2	16.810000	-30.360000;
2	0.0	0.0	3	0.2	30.210000	-27.620000;
2	0.0	0.0	3	0.2	3.697000	0.000000;
2	0.0	0.0	3	0.2	3.204000	0.000000;
2	0.0	0.0	3	0.2	3.974000	0.000000;
2	0.0	0.0	3	0.2	19.710000	0.000000;
2	0.0	0.0	3	0.2	17.900000	0.000000;
2	0.0	0.0	3	0.2	17.770000	0.000000;
2	0.0	0.0	3	0.2	18.790000	0.000000;
2	0.0	0.0	3	0.2	17.490000	0.000000;
2	0.0	0.0	3	0.2	1.704000	0.000000;
2	0.0	0.0	3	0.2	1.280000	0.000000;
2	0.0	0.0	3	0.2	2.148000	0.000000;
2	0.0	0.0	3	0.2	1.458000	0.000000;
	2	 0.0	 0.0	 3	   0.002036	  16.060000	  -1.132000;
	2	 0.0	 0.0	 3	   0.002035	  16.530000	  -1.131000;
	2	 0.0	 0.0	 3	   0.002090	  14.420000	  -1.077000;
2	0.0	0.0	3	0.2	0.000355	0.000000;
2	0.0	0.0	3	0.2	2.209000	0.000000;
2	0.0	0.0	3	0.2	22.440000	-25.880000;
2	0.0	0.0	3	0.2	21.020000	-17.780000;
2	0.0	0.0	3	0.2	22.140000	-17.780000;
	2	 0.0	 0.0	 3	   0.007369	  17.210000	   0.000000;
2	0.0	0.0	3	0.2	20.850000	-24.240000;
2	0.0	0.0	3	0.2	21.150000	-47.870000;
2	0.0	0.0	3	0.2	21.070000	-29.320000;
2	0.0	0.0	3	0.2	17.090000	-35.110000;
	2	 0.0	 0.0	 3	   0.051300	  16.560000	  -1.003000;
2	0.0	0.0	3	0.2	33.230000	-90.670000;
2	0.0	0.0	3	0.2	33.410000	-29.710000;
2	0.0	0.0	3	0.2	21.370000	-40.890000;
2	0.0	0.0	3	0.2	23.940000	-108.700000;
2	0.0	0.0	3	0.2	23.480000	-108.700000;
2	0.0	0.0	3	0.2	21.740000	-108.700000;
2	0.0	0.0	3	0.2	2.928000	0.000000;
2	0.0	0.0	3	0.2	3.603000	0.000000;
2	0.0	0.0	3	0.2	54.980000	-12.710000;
2	0.0	0.0	3	0.2	18.110000	-49.170000;
2	0.0	0.0	3	0.2	19.450000	-49.170000;
2	0.0	0.0	3	0.2	17.530000	-64.880000;
2	0.0	0.0	3	0.2	20.280000	-56.430000;
2	0.0	0.0	3	0.2	19.590000	-57.710000;
	2	 0.0	 0.0	 3	   0.122600	  17.300000	  -1.998000;
2	0.0	0.0	3	0.2	19.710000	0.000000;
2	0.0	0.0	3	0.2	18.420000	0.000000;
2	0.0	0.0	3	0.2	18.940000	0.000000;
2	0.0	0.0	3	0.2	18.660000	0.000000;
2	0.0	0.0	3	0.2	19.670000	-12.080000;
2	0.0	0.0	3	0.2	17.710000	-9.739000;
2	0.0	0.0	3	0.2	32.870000	-30.950000;
2	0.0	0.0	3	0.2	0.003419	0.000000;
2	0.0	0.0	3	0.2	0.003419	0.000000;
2	0.0	0.0	3	0.2	0.003419	0.000000;
	2	 0.0	 0.0	 3	   0.024740	  25.480000	  -1.920000;
	2	 0.0	 0.0	 3	   0.002140	  17.170000	   0.000000;
	2	 0.0	 0.0	 3	   0.005451	  15.470000	  -1.757000;
2	0.0	0.0	3	0.2	23.550000	-960.700000;
	2	 0.0	 0.0	 3	   0.038710	  13.260000	  -6.516000;
	2	 0.0	 0.0	 3	   0.096770	  11.240000	 -16.290000;
	2	 0.0	 0.0	 3	   0.003122	  14.930000	  -1.034000;
	2	 0.0	 0.0	 3	   0.005206	  16.790000	  -1.352000;
2	0.0	0.0	3	0.2	43.840000	-2356.000000;
2	0.0	0.0	3	0.2	43.070000	-2356.000000;
2	0.0	0.0	3	0.2	25.910000	-245.100000;
	2	 0.0	 0.0	 3	   0.027740	  20.290000	  -4.092000;
	2	 0.0	 0.0	 3	   0.038790	  12.110000	  -4.407000;
	2	 0.0	 0.0	 3	   0.038790	  11.350000	  -4.407000;
	2	 0.0	 0.0	 3	   0.038790	  11.240000	  -4.407000;
	2	 0.0	 0.0	 3	   0.038790	  10.860000	  -4.407000;
	2	 0.0	 0.0	 3	   0.031670	  13.620000	  -4.181000;
	2	 0.0	 0.0	 3	   0.031680	  15.350000	  -3.256000;
	2	 0.0	 0.0	 3	   0.064240	  13.550000	 -19.530000;
2	0.0	0.0	3	0.2	24.090000	-939.700000;
2	0.0	0.0	3	0.2	22.920000	-939.700000;
2	0.0	0.0	3	0.2	24.630000	-110.600000;
2	0.0	0.0	3	0.2	22.530000	-110.600000;
2	0.0	0.0	3	0.2	22.570000	-110.600000;
	2	 0.0	 0.0	 3	   0.038710	  10.870000	  -6.406000;
	2	 0.0	 0.0	 3	   0.038710	  12.890000	  -6.406000;
2	0.0	0.0	3	0.2	25.230000	-243.700000;
	2	 0.0	 0.0	 3	   0.096570	  11.300000	 -21.780000;
	2	 0.0	 0.0	 3	   0.038630	  11.180000	  -8.711000;
	2	 0.0	 0.0	 3	   0.038630	  12.370000	  -8.711000;
	2	 0.0	 0.0	 3	   0.064380	  13.410000	 -14.520000;
	2	 0.0	 0.0	 3	   0.031650	  14.350000	  -3.482000;
	2	 0.0	 0.0	 3	   0.031650	  13.840000	  -3.482000;
2	0.0	0.0	3	0.2	3.742000	0.000000;
2	0.0	0.0	3	0.2	1.257000	0.000000;
2	0.0	0.0	3	0.2	1.687000	0.000000;
2	0.0	0.0	3	0.2	2.573000	0.000000;
2	0.0	0.0	3	0.2	2.207000	0.000000;
2	0.0	0.0	3	0.2	1.732000	0.000000;
	2	 0.0	 0.0	 3	   0.014940	  24.620000	   0.000000;
	2	 0.0	 0.0	 3	   0.014940	  26.070000	   0.000000;
2	0.0	0.0	3	0.2	1.734000	0.000000;
	2	 0.0	 0.0	 3	   0.033900	  28.310000	  -1.038000;
2	0.0	0.0	3	0.2	22.290000	-106.600000;
2	0.0	0.0	3	0.2	22.930000	-106.600000;
	2	 0.0	 0.0	 3	   0.013820	  23.990000	  -1.414000;
2	0.0	0.0	3	0.2	20.300000	-37.440000;
2	0.0	0.0	3	0.2	20.050000	-37.440000;
2	0.0	0.0	3	0.2	22.390000	-38.900000;
2	0.0	0.0	3	0.2	22.070000	-38.900000;
2	0.0	0.0	3	0.2	23.270000	-69.150000;
2	0.0	0.0	3	0.2	21.010000	-73.520000;
2	0.0	0.0	3	0.2	18.410000	-29.410000;
2	0.0	0.0	3	0.2	17.170000	-29.410000;
2	0.0	0.0	3	0.2	31.810000	-77.990000;
2	0.0	0.0	3	0.2	20.280000	-37.960000;
2	0.0	0.0	3	0.2	22.440000	-94.910000;
2	0.0	0.0	3	0.2	19.990000	-37.960000;
2	0.0	0.0	3	0.2	21.390000	-63.270000;
2	0.0	0.0	3	0.2	23.160000	-143.600000;
2	0.0	0.0	3	0.2	23.910000	-55.220000;
	2	 0.0	 0.0	 3	   0.021640	  25.210000	  -1.192000;
	2	 0.0	 0.0	 3	   0.033120	  26.010000	  -1.888000;
2	0.0	0.0	3	0.2	36.060000	-150.300000;
2	0.0	0.0	3	0.2	18.180000	-29.410000;
2	0.0	0.0	3	0.2	19.350000	-49.010000;
2	0.0	0.0	3	0.2	17.930000	-4.537000;
2	0.0	0.0	3	0.2	18.480000	-4.537000;
2	0.0	0.0	3	0.2	3.497000	0.000000;
2	0.0	0.0	3	0.2	1.949000	0.000000;
2	0.0	0.0	3	0.2	19.660000	-14.890000;
2	0.0	0.0	3	0.2	19.770000	-14.890000;
	2	 0.0	 0.0	 3	   0.183200	  18.400000	  -2.007000;
2	0.0	0.0	3	0.2	21.280000	-69.790000;
2	0.0	0.0	3	0.2	25.870000	-116.300000;
2	0.0	0.0	3	0.2	21.450000	-49.310000;
2	0.0	0.0	3	0.2	22.360000	-49.310000;
2	0.0	0.0	3	0.2	21.890000	-49.310000;
2	0.0	0.0	3	0.2	19.130000	-31.350000;
2	0.0	0.0	3	0.2	21.830000	-31.350000;
2	0.0	0.0	3	0.2	25.630000	-69.070000;
2	0.0	0.0	3	0.2	21.220000	-27.630000;
2	0.0	0.0	3	0.2	20.710000	-27.630000;
2	0.0	0.0	3	0.2	24.000000	-69.070000;
2	0.0	0.0	3	0.2	18.740000	-10.440000;
	2	 0.0	 0.0	 3	   0.003477	  24.560000	   0.000000;
2	0.0	0.0	3	0.2	23.260000	-35.770000;
2	0.0	0.0	3	0.2	20.310000	-14.310000;
	2	 0.0	 0.0	 3	   0.005649	  14.370000	  -1.382000;
2	0.0	0.0	3	0.2	19.860000	-61.400000;
2	0.0	0.0	3	0.2	20.490000	-61.400000;
2	0.0	0.0	3	0.2	63.380000	-99.060000;
	2	 0.0	 0.0	 3	   0.024780	  18.900000	   0.000000;
	2	 0.0	 0.0	 3	   0.024780	  18.720000	   0.000000;
	2	 0.0	 0.0	 3	   0.024780	  16.380000	   0.000000;
	2	 0.0	 0.0	 3	   0.024780	  16.730000	   0.000000;
	2	 0.0	 0.0	 3	   0.024780	  18.090000	   0.000000;
	2	 0.0	 0.0	 3	   0.024780	  16.330000	   0.000000;
	2	 0.0	 0.0	 3	   0.024780	  17.540000	   0.000000;
2	0.0	0.0	3	0.2	20.850000	-44.180000;
2	0.0	0.0	3	0.2	21.130000	-45.140000;
2	0.0	0.0	3	0.2	55.350000	-15.040000;
2	0.0	0.0	3	0.2	54.010000	-15.040000;
2	0.0	0.0	3	0.2	55.380000	-33.310000;
	2	 0.0	 0.0	 3	   0.073830	  16.270000	   0.000000;
	2	 0.0	 0.0	 3	   0.073830	  18.240000	   0.000000;
	2	 0.0	 0.0	 3	   0.184600	  18.370000	   0.000000;
	2	 0.0	 0.0	 3	   0.184600	  17.630000	   0.000000;
	2	 0.0	 0.0	 3	   0.184600	  18.760000	   0.000000;
	2	 0.0	 0.0	 3	   0.073940	  17.120000	   0.000000;
2	0.0	0.0	3	0.2	1.406000	0.000000;
2	0.0	0.0	3	0.2	3.491000	0.000000;
2	0.0	0.0	3	0.2	19.150000	-27.430000;
2	0.0	0.0	3	0.2	1.029000	0.000000;
2	0.0	0.0	3	0.2	19.490000	0.000000;
2	0.0	0.0	3	0.2	19.980000	0.000000;
...
];

%% storage data
%	bus	energy	energy_rating	charge_rating	discharge_rating	thermal_rating	qmin	qmax	r	x	standby_loss	status
mpc.storage = [
	53994	0.0	0.0	1.00	1638.5460	819.2730	589.8766	0.9	0.85	1000	-1000	1000	0.1	0.01	0	0	1;
	55940	0.0	0.0	1.00	1498.9500	749.4750	539.6220	0.9	0.85	1000	-1000	1000	0.1	0.01	0	0	1;
	53907	0.0	0.0	1.00	1430.3085	715.1543	514.9111	0.9	0.85	1000	-1000	1000	0.1	0.01	0	0	1;
	55941	0.0	0.0	1.00	1391.3175	695.6587	500.8743	0.9	0.85	1000	-1000	1000	0.1	0.01	0	0	1;
	55748	0.0	0.0	1.00	1386.4350	693.2175	499.1166	0.9	0.85	1000	-1000	1000	0.1	0.01	0	0	1;
	53181	0.0	0.0	1.00	1087.5000	543.7500	391.5000	0.9	0.85	1000	-1000	1000	0.1	0.01	0	0	1;
	55459	0.0	0.0	1.00	1065.6450	532.8225	383.6322	0.9	0.85	1000	-1000	1000	0.1	0.01	0	0	1;
	54513	0.0	0.0	1.00	1056.2700	528.1350	380.2572	0.9	0.85	1000	-1000	1000	0.1	0.01	0	0	1;
	55853	0.0	0.0	1.00	1046.5605	523.2803	376.7618	0.9	0.85	1000	-1000	1000	0.1	0.01	0	0	1;
	57198	0.0	0.0	1.00	903.8055	451.9028	325.3700	0.9	0.85	1000	-1000	1000	0.1	0.01	0	0	1;
	57275	0.0	0.0	1.00	854.4075	427.2038	307.5867	0.9	0.85	1000	-1000	1000	0.1	0.01	0	0	1;
	76475	0.0	0.0	1.00	823.5900	411.7950	296.4924	0.9	0.85	1000	-1000	1000	0.1	0.01	0	0	1;
	50673	0.0	0.0	1.00	600.0000	300.0000	216.0000	0.9	0.85	1000	-1000	1000	0.1	0.01	0	0	1;
	54349	0.0	0.0	1.00	599.4000	299.7000	215.7840	0.9	0.85	1000	-1000	1000	0.1	0.01	0	0	1;
	56719	0.0	0.0	1.00	543.9645	271.9822	195.8272	0.9	0.85	1000	-1000	1000	0.1	0.01	0	0	1;
	53892	0.0	0.0	1.00	517.0320	258.5160	186.1315	0.9	0.85	1000	-1000	1000	0.1	0.01	0	0	1;
	76709	0.0	0.0	1.00	510.3270	255.1635	183.7177	0.9	0.85	1000	-1000	1000	0.1	0.01	0	0	1;
	55757	0.0	0.0	1.00	502.3425	251.1712	180.8433	0.9	0.85	1000	-1000	1000	0.1	0.01	0	0	1;
	78001	0.0	0.0	1.00	458.1570	229.0785	164.9365	0.9	0.85	1000	-1000	1000	0.1	0.01	0	0	1;
	77841	0.0	0.0	1.00	450.0000	225.0000	162.0000	0.9	0.85	1000	-1000	1000	0.1	0.01	0	0	1;
	78000	0.0	0.0	1.00	444.3615	222.1807	159.9701	0.9	0.85	1000	-1000	1000	0.1	0.01	0	0	1;
	54101	0.0	0.0	1.00	415.7550	207.8775	149.6718	0.9	0.85	1000	-1000	1000	0.1	0.01	0	0	1;
	76657	0.0	0.0	1.00	411.7770	205.8885	148.2397	0.9	0.85	1000	-1000	1000	0.1	0.01	0	0	1;
	56290	0.0	0.0	1.00	405.1980	202.5990	145.8713	0.9	0.85	1000	-1000	1000	0.1	0.01	0	0	1;
	54817	0.0	0.0	1.00	388.3200	194.1600	139.7952	0.9	0.85	1000	-1000	1000	0.1	0.01	0	0	1;
	77991	0.0	0.0	1.00	385.0425	192.5213	138.6153	0.9	0.85	1000	-1000	1000	0.1	0.01	0	0	1;
	54102	0.0	0.0	1.00	380.8170	190.4085	137.0941	0.9	0.85	1000	-1000	1000	0.1	0.01	0	0	1;
	50374	0.0	0.0	1.00	375.0000	187.5000	135.0000	0.9	0.85	1000	-1000	1000	0.1	0.01	0	0	1;
	53289	0.0	0.0	1.00	375.0000	187.5000	135.0000	0.9	0.85	1000	-1000	1000	0.1	0.01	0	0	1;
	55072	0.0	0.0	1.00	374.7450	187.3725	134.9082	0.9	0.85	1000	-1000	1000	0.1	0.01	0	0	1;
	55690	0.0	0.0	1.00	361.0455	180.5228	129.9764	0.9	0.85	1000	-1000	1000	0.1	0.01	0	0	1;
	52827	0.0	0.0	1.00	327.3360	163.6680	117.8410	0.9	0.85	1000	-1000	1000	0.1	0.01	0	0	1;
	55900	0.0	0.0	1.00	321.9660	160.9830	115.9078	0.9	0.85	1000	-1000	1000	0.1	0.01	0	0	1;
	57283	0.0	0.0	1.00	319.0980	159.5490	114.8753	0.9	0.85	1000	-1000	1000	0.1	0.01	0	0	1;
	53967	0.0	0.0	1.00	310.5750	155.2875	111.8070	0.9	0.85	1000	-1000	1000	0.1	0.01	0	0	1;
	56704	0.0	0.0	1.00	301.5150	150.7575	108.5454	0.9	0.85	1000	-1000	1000	0.1	0.01	0	0	1;
	50201	0.0	0.0	1.00	300.0000	150.0000	108.0000	0.9	0.85	1000	-1000	1000	0.1	0.01	0	0	1;
	52348	0.0	0.0	1.00	300.0000	150.0000	108.0000	0.9	0.85	1000	-1000	1000	0.1	0.01	0	0	1;
	58254	0.0	0.0	1.00	300.0000	150.0000	108.0000	0.9	0.85	1000	-1000	1000	0.1	0.01	0	0	1;
	75805	0.0	0.0	1.00	300.0000	150.0000	108.0000	0.9	0.85	1000	-1000	1000	0.1	0.01	0	0	1;
	56250	0.0	0.0	1.00	298.4400	149.2200	107.4384	0.9	0.85	1000	-1000	1000	0.1	0.01	0	0	1;
	56693	0.0	0.0	1.00	292.6515	146.3257	105.3545	0.9	0.85	1000	-1000	1000	0.1	0.01	0	0	1;
	53910	0.0	0.0	1.00	284.6115	142.3058	102.4601	0.9	0.85	1000	-1000	1000	0.1	0.01	0	0	1;
	56706	0.0	0.0	1.00	276.6300	138.3150	99.5868	0.9	0.85	1000	-1000	1000	0.1	0.01	0	0	1;
	55749	0.0	0.0	1.00	274.1940	137.0970	98.7098	0.9	0.85	1000	-1000	1000	0.1	0.01	0	0	1;
	55696	0.0	0.0	1.00	273.5265	136.7632	98.4695	0.9	0.85	1000	-1000	1000	0.1	0.01	0	0	1;
	76981	0.0	0.0	1.00	269.2875	134.6438	96.9435	0.9	0.85	1000	-1000	1000	0.1	0.01	0	0	1;
	52696	0.0	0.0	1.00	268.4280	134.2140	96.6341	0.9	0.85	1000	-1000	1000	0.1	0.01	0	0	1;
	53544	0.0	0.0	1.00	265.1040	132.5520	95.4374	0.9	0.85	1000	-1000	1000	0.1	0.01	0	0	1;
	52923	0.0	0.0	1.00	250.9455	125.4727	90.3404	0.9	0.85	1000	-1000	1000	0.1	0.01	0	0	1;
	52939	0.0	0.0	1.00	249.3015	124.6507	89.7485	0.9	0.85	1000	-1000	1000	0.1	0.01	0	0	1;
	56634	0.0	0.0	1.00	247.0350	123.5175	88.9326	0.9	0.85	1000	-1000	1000	0.1	0.01	0	0	1;
	78103	0.0	0.0	1.00	246.7260	123.3630	88.8214	0.9	0.85	1000	-1000	1000	0.1	0.01	0	0	1;
	78393	0.0	0.0	1.00	244.8435	122.4218	88.1437	0.9	0.85	1000	-1000	1000	0.1	0.01	0	0	1;
	52439	0.0	0.0	1.00	244.1595	122.0797	87.8974	0.9	0.85	1000	-1000	1000	0.1	0.01	0	0	1;
	76746	0.0	0.0	1.00	242.0055	121.0027	87.1220	0.9	0.85	1000	-1000	1000	0.1	0.01	0	0	1;
	53854	0.0	0.0	1.00	239.6100	119.8050	86.2596	0.9	0.85	1000	-1000	1000	0.1	0.01	0	0	1;
	77205	0.0	0.0	1.00	227.1810	113.5905	81.7852	0.9	0.85	1000	-1000	1000	0.1	0.01	0	0	1;
	50326	0.0	0.0	1.00	225.0000	112.5000	81.0000	0.9	0.85	1000	-1000	1000	0.1	0.01	0	0	1;
	56026	0.0	0.0	1.00	220.4550	110.2275	79.3638	0.9	0.85	1000	-1000	1000	0.1	0.01	0	0	1;
	75998	0.0	0.0	1.00	220.0950	110.0475	79.2342	0.9	0.85	1000	-1000	1000	0.1	0.01	0	0	1;
	52779	0.0	0.0	1.00	219.4335	109.7167	78.9961	0.9	0.85	1000	-1000	1000	0.1	0.01	0	0	1;
	76749	0.0	0.0	1.00	216.9870	108.4935	78.1153	0.9	0.85	1000	-1000	1000	0.1	0.01	0	0	1;
	78153	0.0	0.0	1.00	208.3095	104.1547	74.9914	0.9	0.85	1000	-1000	1000	0.1	0.01	0	0	1;
	77567	0.0	0.0	1.00	207.8145	103.9073	74.8132	0.9	0.85	1000	-1000	1000	0.1	0.01	0	0	1;
	58291	0.0	0.0	1.00	206.2275	103.1138	74.2419	0.9	0.85	1000	-1000	1000	0.1	0.01	0	0	1;
	78336	0.0	0.0	1.00	205.2090	102.6045	73.8752	0.9	0.85	1000	-1000	1000	0.1	0.01	0	0	1;
	56743	0.0	0.0	1.00	202.2750	101.1375	72.8190	0.9	0.85	1000	-1000	1000	0.1	0.01	0	0	1;
	76454	0.0	0.0	1.00	198.1125	99.0562	71.3205	0.9	0.85	1000	-1000	1000	0.1	0.01	0	0	1;
	77333	0.0	0.0	1.00	197.1645	98.5823	70.9792	0.9	0.85	1000	-1000	1000	0.1	0.01	0	0	1;
	56810	0.0	0.0	1.00	194.8260	97.4130	70.1374	0.9	0.85	1000	-1000	1000	0.1	0.01	0	0	1;
	55854	0.0	0.0	1.00	192.4350	96.2175	69.2766	0.9	0.85	1000	-1000	1000	0.1	0.01	0	0	1;
	57271	0.0	0.0	1.00	192.2115	96.1058	69.1961	0.9	0.85	1000	-1000	1000	0.1	0.01	0	0	1;
	52150	0.0	0.0	1.00	190.5795	95.2897	68.6086	0.9	0.85	1000	-1000	1000	0.1	0.01	0	0	1;
	50416	0.0	0.0	1.00	187.5000	93.7500	67.5000	0.9	0.85	1000	-1000	1000	0.1	0.01	0	0	1;
	56392	0.0	0.0	1.00	183.8565	91.9282	66.1883	0.9	0.85	1000	-1000	1000	0.1	0.01	0	0	1;
	78395	0.0	0.0	1.00	182.9805	91.4903	65.8730	0.9	0.85	1000	-1000	1000	0.1	0.01	0	0	1;
	77299	0.0	0.0	1.00	182.7750	91.3875	65.7990	0.9	0.85	1000	-1000	1000	0.1	0.01	0	0	1;
	52611	0.0	0.0	1.00	182.3280	91.1640	65.6381	0.9	0.85	1000	-1000	1000	0.1	0.01	0	0	1;
	50137	0.0	0.0	1.00	180.0000	90.0000	64.8000	0.9	0.85	1000	-1000	1000	0.1	0.01	0	0	1;
	50337	0.0	0.0	1.00	180.0000	90.0000	64.8000	0.9	0.85	1000	-1000	1000	0.1	0.01	0	0	1;
	77882	0.0	0.0	1.00	180.0000	90.0000	64.8000	0.9	0.85	1000	-1000	1000	0.1	0.01	0	0	1;
	78320	0.0	0.0	1.00	178.3575	89.1788	64.2087	0.9	0.85	1000	-1000	1000	0.1	0.01	0	0	1;
	76581	0.0	0.0	1.00	176.9790	88.4895	63.7124	0.9	0.85	1000	-1000	1000	0.1	0.01	0	0	1;
	57191	0.0	0.0	1.00	174.9750	87.4875	62.9910	0.9	0.85	1000	-1000	1000	0.1	0.01	0	0	1;
	77200	0.0	0.0	1.00	171.7860	85.8930	61.8430	0.9	0.85	1000	-1000	1000	0.1	0.01	0	0	1;
	55522	0.0	0.0	1.00	170.6070	85.3035	61.4185	0.9	0.85	1000	-1000	1000	0.1	0.01	0	0	1;
	77700	0.0	0.0	1.00	170.5935	85.2968	61.4137	0.9	0.85	1000	-1000	1000	0.1	0.01	0	0	1;
	78347	0.0	0.0	1.00	169.0230	84.5115	60.8483	0.9	0.85	1000	-1000	1000	0.1	0.01	0	0	1;
	77001	0.0	0.0	1.00	167.1630	83.5815	60.1787	0.9	0.85	1000	-1000	1000	0.1	0.01	0	0	1;
	77235	0.0	0.0	1.00	166.2825	83.1412	59.8617	0.9	0.85	1000	-1000	1000	0.1	0.01	0	0	1;
	76167	0.0	0.0	1.00	165.5745	82.7873	59.6068	0.9	0.85	1000	-1000	1000	0.1	0.01	0	0	1;
	53895	0.0	0.0	1.00	165.4125	82.7063	59.5485	0.9	0.85	1000	-1000	1000	0.1	0.01	0	0	1;
	77569	0.0	0.0	1.00	165.1320	82.5660	59.4475	0.9	0.85	1000	-1000	1000	0.1	0.01	0	0	1;
	53995	0.0	0.0	1.00	164.5920	82.2960	59.2531	0.9	0.85	1000	-1000	1000	0.1	0.01	0	0	1;
	53893	0.0	0.0	1.00	164.4600	82.2300	59.2056	0.9	0.85	1000	-1000	1000	0.1	0.01	0	0	1;
	52777	0.0	0.0	1.00	162.0000	81.0000	58.3200	0.9	0.85	1000	-1000	1000	0.1	0.01	0	0	1;
	78275	0.0	0.0	1.00	160.0560	80.0280	57.6202	0.9	0.85	1000	-1000	1000	0.1	0.01	0	0	1;
	56708	0.0	0.0	1.00	158.7900	79.3950	57.1644	0.9	0.85	1000	-1000	1000	0.1	0.01	0	0	1;
	53909	0.0	0.0	1.00	158.2440	79.1220	56.9678	0.9	0.85	1000	-1000	1000	0.1	0.01	0	0	1;
	56705	0.0	0.0	1.00	157.3800	78.6900	56.6568	0.9	0.85	1000	-1000	1000	0.1	0.01	0	0	1;
	52948	0.0	0.0	1.00	155.7780	77.8890	56.0801	0.9	0.85	1000	-1000	1000	0.1	0.01	0	0	1;
	52698	0.0	0.0	1.00	155.4375	77.7188	55.9575	0.9	0.85	1000	-1000	1000	0.1	0.01	0	0	1;
	57184	0.0	0.0	1.00	154.4205	77.2103	55.5914	0.9	0.85	1000	-1000	1000	0.1	0.01	0	0	1;
	77258	0.0	0.0	1.00	154.1100	77.0550	55.4796	0.9	0.85	1000	-1000	1000	0.1	0.01	0	0	1;
	56717	0.0	0.0	1.00	153.6825	76.8413	55.3257	0.9	0.85	1000	-1000	1000	0.1	0.01	0	0	1;
	76372	0.0	0.0	1.00	153.1065	76.5532	55.1183	0.9	0.85	1000	-1000	1000	0.1	0.01	0	0	1;
	76752	0.0	0.0	1.00	152.0070	76.0035	54.7225	0.9	0.85	1000	-1000	1000	0.1	0.01	0	0	1;
	50222	0.0	0.0	1.00	150.0000	75.0000	54.0000	0.9	0.85	1000	-1000	1000	0.1	0.01	0	0	1;
	50271	0.0	0.0	1.00	150.0000	75.0000	54.0000	0.9	0.85	1000	-1000	1000	0.1	0.01	0	0	1;
	50300	0.0	0.0	1.00	150.0000	75.0000	54.0000	0.9	0.85	1000	-1000	1000	0.1	0.01	0	0	1;
	50714	0.0	0.0	1.00	150.0000	75.0000	54.0000	0.9	0.85	1000	-1000	1000	0.1	0.01	0	0	1;
	51956	0.0	0.0	1.00	150.0000	75.0000	54.0000	0.9	0.85	1000	-1000	1000	0.1	0.01	0	0	1;
	52007	0.0	0.0	1.00	150.0000	75.0000	54.0000	0.9	0.85	1000	-1000	1000	0.1	0.01	0	0	1;
	53132	0.0	0.0	1.00	150.0000	75.0000	54.0000	0.9	0.85	1000	-1000	1000	0.1	0.01	0	0	1;
	53153	0.0	0.0	1.00	150.0000	75.0000	54.0000	0.9	0.85	1000	-1000	1000	0.1	0.01	0	0	1;
	57342	0.0	0.0	1.00	150.0000	75.0000	54.0000	0.9	0.85	1000	-1000	1000	0.1	0.01	0	0	1;
	75803	0.0	0.0	1.00	150.0000	75.0000	54.0000	0.9	0.85	1000	-1000	1000	0.1	0.01	0	0	1;
	76782	0.0	0.0	1.00	150.0000	75.0000	54.0000	0.9	0.85	1000	-1000	1000	0.1	0.01	0	0	1;
	76842	0.0	0.0	1.00	145.7835	72.8918	52.4821	0.9	0.85	1000	-1000	1000	0.1	0.01	0	0	1;
	76625	0.0	0.0	1.00	144.0090	72.0045	51.8432	0.9	0.85	1000	-1000	1000	0.1	0.01	0	0	1;
	76452	0.0	0.0	1.00	142.4775	71.2387	51.2919	0.9	0.85	1000	-1000	1000	0.1	0.01	0	0	1;
	78323	0.0	0.0	1.00	141.7425	70.8713	51.0273	0.9	0.85	1000	-1000	1000	0.1	0.01	0	0	1;
	77370	0.0	0.0	1.00	139.7970	69.8985	50.3269	0.9	0.85	1000	-1000	1000	0.1	0.01	0	0	1;
	76247	0.0	0.0	1.00	139.5480	69.7740	50.2373	0.9	0.85	1000	-1000	1000	0.1	0.01	0	0	1;
	77518	0.0	0.0	1.00	138.0075	69.0037	49.6827	0.9	0.85	1000	-1000	1000	0.1	0.01	0	0	1;
	78028	0.0	0.0	1.00	134.5845	67.2922	48.4504	0.9	0.85	1000	-1000	1000	0.1	0.01	0	0	1;
	76382	0.0	0.0	1.00	134.4330	67.2165	48.3959	0.9	0.85	1000	-1000	1000	0.1	0.01	0	0	1;
	77091	0.0	0.0	1.00	133.2060	66.6030	47.9542	0.9	0.85	1000	-1000	1000	0.1	0.01	0	0	1;
	55744	0.0	0.0	1.00	132.9060	66.4530	47.8462	0.9	0.85	1000	-1000	1000	0.1	0.01	0	0	1;
	56381	0.0	0.0	1.00	132.8535	66.4267	47.8273	0.9	0.85	1000	-1000	1000	0.1	0.01	0	0	1;
	76096	0.0	0.0	1.00	132.1470	66.0735	47.5729	0.9	0.85	1000	-1000	1000	0.1	0.01	0	0	1;
	53406	0.0	0.0	1.00	132.0840	66.0420	47.5502	0.9	0.85	1000	-1000	1000	0.1	0.01	0	0	1;
	56760	0.0	0.0	1.00	129.3960	64.6980	46.5826	0.9	0.85	1000	-1000	1000	0.1	0.01	0	0	1;
	57078	0.0	0.0	1.00	128.7435	64.3717	46.3477	0.9	0.85	1000	-1000	1000	0.1	0.01	0	0	1;
	55104	0.0	0.0	1.00	126.1650	63.0825	45.4194	0.9	0.85	1000	-1000	1000	0.1	0.01	0	0	1;
	52358	0.0	0.0	1.00	125.9280	62.9640	45.3341	0.9	0.85	1000	-1000	1000	0.1	0.01	0	0	1;
	76468	0.0	0.0	1.00	125.2740	62.6370	45.0986	0.9	0.85	1000	-1000	1000	0.1	0.01	0	0	1;
	56716	0.0	0.0	1.00	124.7700	62.3850	44.9172	0.9	0.85	1000	-1000	1000	0.1	0.01	0	0	1;
	56531	0.0	0.0	1.00	124.6920	62.3460	44.8891	0.9	0.85	1000	-1000	1000	0.1	0.01	0	0	1;
	78462	0.0	0.0	1.00	123.7035	61.8517	44.5333	0.9	0.85	1000	-1000	1000	0.1	0.01	0	0	1;
	55202	0.0	0.0	1.00	123.6465	61.8233	44.5127	0.9	0.85	1000	-1000	1000	0.1	0.01	0	0	1;
	55801	0.0	0.0	1.00	121.3785	60.6893	43.6963	0.9	0.85	1000	-1000	1000	0.1	0.01	0	0	1;
	52583	0.0	0.0	1.00	121.1100	60.5550	43.5996	0.9	0.85	1000	-1000	1000	0.1	0.01	0	0	1;
	76292	0.0	0.0	1.00	121.0710	60.5355	43.5856	0.9	0.85	1000	-1000	1000	0.1	0.01	0	0	1;
	52417	0.0	0.0	1.00	120.5055	60.2528	43.3820	0.9	0.85	1000	-1000	1000	0.1	0.01	0	0	1;
	77310	0.0	0.0	1.00	120.2550	60.1275	43.2918	0.9	0.85	1000	-1000	1000	0.1	0.01	0	0	1;
	54746	0.0	0.0	1.00	120.2475	60.1238	43.2891	0.9	0.85	1000	-1000	1000	0.1	0.01	0	0	1;
	50453	0.0	0.0	1.00	120.0000	60.0000	43.2000	0.9	0.85	1000	-1000	1000	0.1	0.01	0	0	1;
	50608	0.0	0.0	1.00	120.0000	60.0000	43.2000	0.9	0.85	1000	-1000	1000	0.1	0.01	0	0	1;
	75808	0.0	0.0	1.00	120.0000	60.0000	43.2000	0.9	0.85	1000	-1000	1000	0.1	0.01	0	0	1;
	51968	0.0	0.0	1.00	118.4625	59.2312	42.6465	0.9	0.85	1000	-1000	1000	0.1	0.01	0	0	1;
	54781	0.0	0.0	1.00	116.8905	58.4453	42.0806	0.9	0.85	1000	-1000	1000	0.1	0.01	0	0	1;
	76976	0.0	0.0	1.00	116.3955	58.1977	41.9024	0.9	0.85	1000	-1000	1000	0.1	0.01	0	0	1;
	76342	0.0	0.0	1.00	116.1300	58.0650	41.8068	0.9	0.85	1000	-1000	1000	0.1	0.01	0	0	1;
	55775	0.0	0.0	1.00	116.0805	58.0403	41.7890	0.9	0.85	1000	-1000	1000	0.1	0.01	0	0	1;
	77698	0.0	0.0	1.00	114.8790	57.4395	41.3564	0.9	0.85	1000	-1000	1000	0.1	0.01	0	0	1;
	78223	0.0	0.0	1.00	113.6685	56.8342	40.9207	0.9	0.85	1000	-1000	1000	0.1	0.01	0	0	1;
	54359	0.0	0.0	1.00	113.2440	56.6220	40.7678	0.9	0.85	1000	-1000	1000	0.1	0.01	0	0	1;
	78318	0.0	0.0	1.00	112.8270	56.4135	40.6177	0.9	0.85	1000	-1000	1000	0.1	0.01	0	0	1;
	75442	0.0	0.0	1.00	112.7625	56.3812	40.5945	0.9	0.85	1000	-1000	1000	0.1	0.01	0	0	1;
	76427	0.0	0.0	1.00	112.5435	56.2717	40.5157	0.9	0.85	1000	-1000	1000	0.1	0.01	0	0	1;
	78129	0.0	0.0	1.00	110.3730	55.1865	39.7343	0.9	0.85	1000	-1000	1000	0.1	0.01	0	0	1;
	78417	0.0	0.0	1.00	109.8315	54.9158	39.5393	0.9	0.85	1000	-1000	1000	0.1	0.01	0	0	1;
	77365	0.0	0.0	1.00	109.5885	54.7942	39.4519	0.9	0.85	1000	-1000	1000	0.1	0.01	0	0	1;
	55610	0.0	0.0	1.00	109.4985	54.7492	39.4195	0.9	0.85	1000	-1000	1000	0.1	0.01	0	0	1;
	77318	0.0	0.0	1.00	108.4830	54.2415	39.0539	0.9	0.85	1000	-1000	1000	0.1	0.01	0	0	1;
	51659	0.0	0.0	1.00	108.3630	54.1815	39.0107	0.9	0.85	1000	-1000	1000	0.1	0.01	0	0	1;
	78297	0.0	0.0	1.00	108.3045	54.1523	38.9896	0.9	0.85	1000	-1000	1000	0.1	0.01	0	0	1;
	53373	0.0	0.0	1.00	108.0765	54.0383	38.9075	0.9	0.85	1000	-1000	1000	0.1	0.01	0	0	1;
	78429	0.0	0.0	1.00	108.0300	54.0150	38.8908	0.9	0.85	1000	-1000	1000	0.1	0.01	0	0	1;
	77415	0.0	0.0	1.00	107.9265	53.9632	38.8535	0.9	0.85	1000	-1000	1000	0.1	0.01	0	0	1;
	76046	0.0	0.0	1.00	107.8530	53.9265	38.8271	0.9	0.85	1000	-1000	1000	0.1	0.01	0	0	1;
	56514	0.0	0.0	1.00	106.8690	53.4345	38.4728	0.9	0.85	1000	-1000	1000	0.1	0.01	0	0	1;
	76769	0.0	0.0	1.00	106.3185	53.1593	38.2747	0.9	0.85	1000	-1000	1000	0.1	0.01	0	0	1;
	76687	0.0	0.0	1.00	105.8190	52.9095	38.0948	0.9	0.85	1000	-1000	1000	0.1	0.01	0	0	1;
	52308	0.0	0.0	1.00	105.0570	52.5285	37.8205	0.9	0.85	1000	-1000	1000	0.1	0.01	0	0	1;
	50992	0.0	0.0	1.00	105.0000	52.5000	37.8000	0.9	0.85	1000	-1000	1000	0.1	0.01	0	0	1;
	78632	0.0	0.0	1.00	104.8665	52.4333	37.7519	0.9	0.85	1000	-1000	1000	0.1	0.01	0	0	1;
	53355	0.0	0.0	1.00	103.7700	51.8850	37.3572	0.9	0.85	1000	-1000	1000	0.1	0.01	0	0	1;
	76522	0.0	0.0	1.00	102.9840	51.4920	37.0742	0.9	0.85	1000	-1000	1000	0.1	0.01	0	0	1;
	52452	0.0	0.0	1.00	102.9255	51.4627	37.0532	0.9	0.85	1000	-1000	1000	0.1	0.01	0	0	1;
	78344	0.0	0.0	1.00	102.6240	51.3120	36.9446	0.9	0.85	1000	-1000	1000	0.1	0.01	0	0	1;
	77525	0.0	0.0	1.00	102.5415	51.2708	36.9149	0.9	0.85	1000	-1000	1000	0.1	0.01	0	0	1;
	75896	0.0	0.0	1.00	102.1245	51.0622	36.7648	0.9	0.85	1000	-1000	1000	0.1	0.01	0	0	1;
	78165	0.0	0.0	1.00	101.2455	50.6227	36.4484	0.9	0.85	1000	-1000	1000	0.1	0.01	0	0	1;
	76174	0.0	0.0	1.00	101.2410	50.6205	36.4468	0.9	0.85	1000	-1000	1000	0.1	0.01	0	0	1;
	76049	0.0	0.0	1.00	101.1795	50.5898	36.4246	0.9	0.85	1000	-1000	1000	0.1	0.01	0	0	1;
	78086	0.0	0.0	1.00	100.8840	50.4420	36.3182	0.9	0.85	1000	-1000	1000	0.1	0.01	0	0	1;
	77605	0.0	0.0	1.00	100.8810	50.4405	36.3172	0.9	0.85	1000	-1000	1000	0.1	0.01	0	0	1;
	53334	0.0	0.0	1.00	100.5840	50.2920	36.2102	0.9	0.85	1000	-1000	1000	0.1	0.01	0	0	1;
	76056	0.0	0.0	1.00	100.5570	50.2785	36.2005	0.9	0.85	1000	-1000	1000	0.1	0.01	0	0	1;
	76506	0.0	0.0	1.00	100.4130	50.2065	36.1487	0.9	0.85	1000	-1000	1000	0.1	0.01	0	0	1;
	77395	0.0	0.0	1.00	100.3800	50.1900	36.1368	0.9	0.85	1000	-1000	1000	0.1	0.01	0	0	1;
	76772	0.0	0.0	1.00	99.5040	49.7520	35.8214	0.9	0.85	1000	-1000	1000	0.1	0.01	0	0	1;
	53543	0.0	0.0	1.00	99.2175	49.6088	35.7183	0.9	0.85	1000	-1000	1000	0.1	0.01	0	0	1;
	57890	0.0	0.0	1.00	98.6010	49.3005	35.4964	0.9	0.85	1000	-1000	1000	0.1	0.01	0	0	1;
	77321	0.0	0.0	1.00	98.5395	49.2698	35.4742	0.9	0.85	1000	-1000	1000	0.1	0.01	0	0	1;
	53287	0.0	0.0	1.00	98.2560	49.1280	35.3722	0.9	0.85	1000	-1000	1000	0.1	0.01	0	0	1;
	78646	0.0	0.0	1.00	97.8285	48.9142	35.2183	0.9	0.85	1000	-1000	1000	0.1	0.01	0	0	1;
...
];

%% branch data
%	fbus	tbus	r	x	b	rateA	rateB	rateC	ratio	angle	status	angmin	angmax
mpc.branch = [
	50134	 50135	 0.00497766	 0.0361207	 1.31774	 675.75	 795.0	 795.0	 0.0	 0.0	 1	 -30.0	 30.0;
	50134	 50948	 0.00503332	 0.03628	 1.34238	 675.75	 795.0	 795.0	 0.0	 0.0	 1	 -30.0	 30.0;
	50134	 52364	 0.00513118	 0.0607667	 2.44002	 906.95	 1067.0	 1067.0	 0.0	 0.0	 1	 -30.0	 30.0;
	50134	 75433	 1e-07	 0.0001	 0.0	 864.11	 1016.63	 1016.63	 0.0	 0.0	 1	 -30.0	 30.0;
	50135	 51114	 0.00329039	 0.0423459	 2.93791	 1275.0	 1500.0	 1500.0	 0.0	 0.0	 1	 -30.0	 30.0;
	50135	 51754	 0.00392295	 0.0283769	 1.03051	 795.0	 795.0	 795.0	 0.0	 0.0	 1	 -30.0	 30.0;
	50135	 75437	 1e-07	 0.0001	 0.0	 425.0	 500.0	 500.0	 0.0	 0.0	 1	 -30.0	 30.0;
	50136	 50891	 0.00435841	 0.031565	 1.14828	 900.0	 900.0	 900.0	 0.0	 0.0	 1	 -30.0	 30.0;
	50136	 50948	 0.00366073	 0.0466526	 1.90446	 974.95	 1147.0	 1147.0	 0.0	 0.0	 1	 -30.0	 30.0;
	50136	 75441	 1e-07	 0.0001	 0.0	 1175.0	 1175.0	 1175.0	 0.0	 0.0	 1	 -30.0	 30.0;
	50137	 50680	 0.000436738	 0.00312195	 0.114136	 1040.4	 1224.0	 1224.0	 0.0	 0.0	 1	 -30.0	 30.0;
	50137	 50714	 0.00208343	 0.0150163	 0.542472	 754.8	 888.0	 888.0	 0.0	 0.0	 1	 -30.0	 30.0;
	50138	 52738	 0.000646844	 0.00462419	 0.169074	 675.75	 795.0	 795.0	 0.0	 0.0	 1	 -30.0	 30.0;
	50139	 51288	 0.000628405	 0.00418439	 0.0587631	 676.6	 796.0	 796.0	 0.0	 0.0	 1	 -30.0	 30.0;
	50139	 75966	 0.00381758	 0.0141112	 0.113484	 301.75	 355.0	 355.0	 0.0	 0.0	 1	 -30.0	 30.0;
...